<?xml version="1.0"?>
<!-- generated on 2019-02-02 22:33:51.960180 by $Id: randomTrips.py 23999 2017-04-21 09:04:47Z behrisch $
  options: -n erlangen.net.xml <doubleminus>fringe-factor 10 -b 0 -e 48400 -p 220 -r trip.rou.xml <doubleminus>seed 1600 <doubleminus>intermediate 2 <doubleminus>trip-attributes=departSpeed="max"
-->
<routes xmlns:xsi="http://www.w3.org/2001/XMLSchema-instance" xsi:noNamespaceSchemaLocation="http://sumo.dlr.de/xsd/routes_file.xsd">
    <trip id="0" depart="0.00" from="-10425131" to="35842306#1" via="29900564#2 3998612#2"  departSpeed="max"/>
    <trip id="1" depart="220.00" from="23805514#0" to="-4006725#0" via="4006693#0 -9643180"  departSpeed="max"/>
    <trip id="2" depart="440.00" from="-3013109" to="3998615#1" via="30357194 -4006674#1"  departSpeed="max"/>
    <trip id="3" depart="660.00" from="-4006725#1" to="-31401018" via="-28269601 4900041#1"  departSpeed="max"/>
    <trip id="4" depart="880.00" from="4006674#0" to="94344940#0" via="30350445 4006684"  departSpeed="max"/>
    <trip id="5" depart="1100.00" from="4392769" to="-41973977" via="-4006672 -23605600#0"  departSpeed="max"/>
    <trip id="6" depart="1320.00" from="3998615#0" to="31720632#1" via="30357194 -3013109"  departSpeed="max"/>
    <trip id="7" depart="1540.00" from="4797872" to="113939242#1" via="8402998#0 31255203#0"  departSpeed="max"/>
    <trip id="8" depart="1760.00" from="-10712013" to="4319349" via="3013107 -3998613#1"  departSpeed="max"/>
    <trip id="9" depart="1980.00" from="23350929" to="32320329" via="3998612#2 -23805514#1"  departSpeed="max"/>
    <trip id="10" depart="2200.00" from="31241835#0" to="10712013" via="94344940#0 4006668"  departSpeed="max"/>
    <trip id="11" depart="2420.00" from="-4006740" to="-4047532" via="-8403007 4900043"  departSpeed="max"/>
    <trip id="12" depart="2640.00" from="32282774" to="32320329" via="-3998612#2 29900565#1"  departSpeed="max"/>
    <trip id="13" depart="2860.00" from="4797871" to="-4900739#0" via="29900564#5 -113939241"  departSpeed="max"/>
    <trip id="14" depart="3080.00" from="4319351" to="-4006724#0" via="32270595 -23605600#2"  departSpeed="max"/>
    <trip id="15" depart="3300.00" from="15259223" to="-4006703#0" via="-31270441 4006724#2"  departSpeed="max"/>
    <trip id="16" depart="3520.00" from="10425128#1" to="-4392769" via="-4006674#3 -4006702#0"  departSpeed="max"/>
    <trip id="17" depart="3740.00" from="-4006676" to="67076129" via="-31401017#2 4006726#2"  departSpeed="max"/>
    <trip id="18" depart="3960.00" from="4006705#0" to="4006673" via="113939241 30405356"  departSpeed="max"/>
    <trip id="19" depart="4180.00" from="4006726#0" to="-54105725" via="31241816#0 28768072"  departSpeed="max"/>
    <trip id="20" depart="4400.00" from="23350929" to="4099270#1" via="31241838#1 -4006724#2"  departSpeed="max"/>
    <trip id="21" depart="4620.00" from="25472079" to="-4047316" via="4006672 -4872369"  departSpeed="max"/>
    <trip id="22" depart="4840.00" from="10573414#0" to="23805514#1" via="-31353573#1 -3998612#1"  departSpeed="max"/>
    <trip id="23" depart="5060.00" from="30405358#0" to="-25210699" via="4047309 -32270593"  departSpeed="max"/>
    <trip id="24" depart="5280.00" from="54105725" to="-4047532" via="23341293 -3013109"  departSpeed="max"/>
    <trip id="25" depart="5500.00" from="-113939241" to="-32271499" via="8402998#0 8403007"  departSpeed="max"/>
    <trip id="26" depart="5720.00" from="-8402998#2" to="37591481" via="-31241851#1 -3998645#1"  departSpeed="max"/>
    <trip id="27" depart="5940.00" from="32282774" to="-28613734" via="4006724#1 -4006684"  departSpeed="max"/>
    <trip id="28" depart="6160.00" from="4006703#0" to="-4392769" via="4686970#1 31241816#3"  departSpeed="max"/>
    <trip id="29" depart="6380.00" from="4900741" to="31982182#1" via="31241816#1 -31241816#1"  departSpeed="max"/>
    <trip id="30" depart="6600.00" from="15259223" to="31720632#1" via="-10425128#0 -5445204#2"  departSpeed="max"/>
    <trip id="31" depart="6820.00" from="-26188722" to="31982182#1" via="31241851#1 -31241848"  departSpeed="max"/>
    <trip id="32" depart="7040.00" from="29900561#1" to="37591481" via="-4900043 -32270592#1"  departSpeed="max"/>
    <trip id="33" depart="7260.00" from="-5558" to="-31241834#1" via="30405356 4900041#2"  departSpeed="max"/>
    <trip id="34" depart="7480.00" from="-94344940#2" to="31261347" via="4006724#1 -3013107"  departSpeed="max"/>
    <trip id="35" depart="7700.00" from="-4006674#0" to="-15259223" via="-32270595 4006684"  departSpeed="max"/>
    <trip id="36" depart="7920.00" from="3998613#1" to="-31241816#0" via="-31241851#0 -31401018"  departSpeed="max"/>
    <trip id="37" depart="8140.00" from="-10712013" to="28631632" via="4006673 -10573414#1"  departSpeed="max"/>
    <trip id="38" depart="8360.00" from="25210699" to="26188722" via="-4006702#2 31241834#0"  departSpeed="max"/>
    <trip id="39" depart="8580.00" from="-3998612#0" to="-125685391" via="31777493#1 3998612#1"  departSpeed="max"/>
    <trip id="40" depart="8800.00" from="-3998653" to="--5558" via="28269598 -31241851#2"  departSpeed="max"/>
    <trip id="41" depart="9020.00" from="-31720632#1" to="8403001" via="-4006674#1 -31241851#2"  departSpeed="max"/>
    <trip id="42" depart="9240.00" from="-31241835#1" to="-4900739#0" via="-3998643#1 4006693#2"  departSpeed="max"/>
    <trip id="43" depart="9460.00" from="113939242#1" to="4900041#0" via="-31241838#0 -4047532"  departSpeed="max"/>
    <trip id="44" depart="9680.00" from="-29900565#1" to="-3013106#0" via="4006693#1 -35842306#0"  departSpeed="max"/>
    <trip id="45" depart="9900.00" from="-23341293" to="4690348" via="31241834#0 -3998645#0"  departSpeed="max"/>
    <trip id="46" depart="10120.00" from="4006705#0" to="-28613727#0" via="30350450#2 4006724#2"  departSpeed="max"/>
    <trip id="47" depart="10340.00" from="-31401018" to="-4006726#0" via="-8403001 -4006688#0"  departSpeed="max"/>
    <trip id="48" depart="10560.00" from="4006705#0" to="25398494#0" via="-8403001 4872369"  departSpeed="max"/>
    <trip id="49" depart="10780.00" from="4900041#2" to="-10573414#0" via="4047532 4872369"  departSpeed="max"/>
    <trip id="50" depart="11000.00" from="4392769" to="-10573414#0" via="-3998645#2 25472129"  departSpeed="max"/>
    <trip id="51" depart="11220.00" from="-39539626" to="39539626" via="10425128#0 -28613737"  departSpeed="max"/>
    <trip id="52" depart="11440.00" from="23360299" to="-28613734" via="-31401017#2 -4006725#1"  departSpeed="max"/>
    <trip id="53" depart="11660.00" from="-26188722" to="30350448" via="-4006702#2 -31255203#0"  departSpeed="max"/>
    <trip id="54" depart="11880.00" from="25210699" to="-4006703#0" via="-3998615#1 10425130"  departSpeed="max"/>
    <trip id="55" depart="12100.00" from="31353573#1" to="-23350929" via="8402998#3 -29900561#0"  departSpeed="max"/>
    <trip id="56" depart="12320.00" from="4392769" to="-28613734" via="4006724#2 4006683"  departSpeed="max"/>
    <trip id="57" depart="12540.00" from="4006703#0" to="4690348" via="3998643#2 -3998643#1"  departSpeed="max"/>
    <trip id="58" depart="12760.00" from="25472299" to="-4006693#3" via="-4006702#2 4006724#2"  departSpeed="max"/>
    <trip id="59" depart="12980.00" from="32271499" to="-32282774" via="4900739#1 4099270#0"  departSpeed="max"/>
    <trip id="60" depart="13200.00" from="-32320329" to="4006740" via="4797872 -31720632#0"  departSpeed="max"/>
    <trip id="61" depart="13420.00" from="-28631632" to="4006676" via="4006703#1 30350445"  departSpeed="max"/>
    <trip id="62" depart="13640.00" from="-33174302#0" to="-31241855#1" via="-31255203#0 -4006674#2"  departSpeed="max"/>
    <trip id="63" depart="13860.00" from="-4006674#1" to="-31241835#0" via="113939242#1 4006702#0"  departSpeed="max"/>
    <trip id="64" depart="14080.00" from="4319352#0" to="4319349" via="-29900565#0 -28613727#0"  departSpeed="max"/>
    <trip id="65" depart="14300.00" from="4686970#0" to="-23360299" via="4047446#1 31241853#2"  departSpeed="max"/>
    <trip id="66" depart="14520.00" from="31241834#1" to="-4006724#0" via="-23605600#0 -31777493#1"  departSpeed="max"/>
    <trip id="67" depart="14740.00" from="4047316" to="94344940#3" via="28613727#0 -32302591#5"  departSpeed="max"/>
    <trip id="68" depart="14960.00" from="-10712011" to="10712013" via="4900041#3 3013106#2"  departSpeed="max"/>
    <trip id="69" depart="15180.00" from="4047316" to="-4006683" via="23805514#1 31241816#0"  departSpeed="max"/>
    <trip id="70" depart="15400.00" from="23350929" to="8402997" via="31353573#1 -3998643#1"  departSpeed="max"/>
    <trip id="71" depart="15620.00" from="-4006740" to="-4006688#1" via="-4006702#1 4006674#4"  departSpeed="max"/>
    <trip id="72" depart="15840.00" from="28613734" to="4006688#4" via="-4006688#0 -8403001"  departSpeed="max"/>
    <trip id="73" depart="16060.00" from="-5558" to="4006702#1" via="-29900564#5 31777493#0"  departSpeed="max"/>
    <trip id="74" depart="16280.00" from="-28631632" to="-30357194" via="31241855#0 -4047532"  departSpeed="max"/>
    <trip id="75" depart="16500.00" from="125685391" to="-4006668" via="85355912 -37591481"  departSpeed="max"/>
    <trip id="76" depart="16720.00" from="122161390" to="-125685391" via="30350445 31241834#0"  departSpeed="max"/>
    <trip id="77" depart="16940.00" from="-26188722" to="-23805514#0" via="31241853#1 94344940#2"  departSpeed="max"/>
    <trip id="78" depart="17160.00" from="4900739#0" to="4099270#1" via="4047378 -31255203#1"  departSpeed="max"/>
    <trip id="79" depart="17380.00" from="-5445204#2" to="-94344940#0" via="30350449 4006675"  departSpeed="max"/>
    <trip id="80" depart="17600.00" from="31241835#0" to="10425131" via="-31401017#1 31401018"  departSpeed="max"/>
    <trip id="81" depart="17820.00" from="4006674#3" to="3998612#2" via="113939241 31270441"  departSpeed="max"/>
    <trip id="82" depart="18040.00" from="32611578" to="25472257" via="-8402997 30350450#0"  departSpeed="max"/>
    <trip id="83" depart="18260.00" from="4006725#0" to="31241853#1" via="28613727#1 31241816#1"  departSpeed="max"/>
    <trip id="84" depart="18480.00" from="-31720632#1" to="3998653" via="-31401017#0 -31241851#0"  departSpeed="max"/>
    <trip id="85" depart="18700.00" from="94344940#0" to="4099270#1" via="8402997 -31401018"  departSpeed="max"/>
    <trip id="86" depart="18920.00" from="30405358#0" to="-4006724#0" via="4006693#1 31241835#1"  departSpeed="max"/>
    <trip id="87" depart="19140.00" from="32282774" to="-8402998#3" via="-31241851#1 -32302591#5"  departSpeed="max"/>
    <trip id="88" depart="19360.00" from="32302591#2" to="-8403001" via="-29900565#1 -4006691"  departSpeed="max"/>
    <trip id="89" depart="19580.00" from="31241853#0" to="31241853#2" via="-3998612#2 -10425128#0"  departSpeed="max"/>
    <trip id="90" depart="19800.00" from="30350450#1" to="-28269601" via="-8402998#3 4319352#0"  departSpeed="max"/>
    <trip id="91" depart="20020.00" from="-39539626" to="4047446#0" via="8402997 -32270592#0"  departSpeed="max"/>
    <trip id="92" depart="20240.00" from="3998612#2" to="-4047532" via="-29900564#0 4006702#0"  departSpeed="max"/>
    <trip id="93" depart="20460.00" from="-3998643#0" to="4099270#1" via="-29900565#2 8403007"  departSpeed="max"/>
    <trip id="94" depart="20680.00" from="32282774" to="-23350930" via="-10425130 -29900565#3"  departSpeed="max"/>
    <trip id="95" depart="20900.00" from="3998645#0" to="-4900739#0" via="-4006674#3 32302591#5"  departSpeed="max"/>
    <trip id="96" depart="21120.00" from="5445204#2" to="-4006725#0" via="29900564#3 4006702#0"  departSpeed="max"/>
    <trip id="97" depart="21340.00" from="-67076129" to="-3998615#0" via="-31720632#0 -3013109"  departSpeed="max"/>
    <trip id="98" depart="21560.00" from="4006674#0" to="-28613727#0" via="32270592#1 3998645#1"  departSpeed="max"/>
    <trip id="99" depart="21780.00" from="-32320329" to="-31401018" via="-28613727#1 -31241834#1"  departSpeed="max"/>
    <trip id="100" depart="22000.00" from="4900739#0" to="-25210699" via="-32302591#0 3998615#2"  departSpeed="max"/>
    <trip id="101" depart="22220.00" from="-3998653" to="-15259223" via="31255203#1 3998612#1"  departSpeed="max"/>
    <trip id="102" depart="22440.00" from="-4006693#1" to="-10573414#0" via="30405352 4006688#1"  departSpeed="max"/>
    <trip id="103" depart="22660.00" from="32282774" to="29900565#2" via="-4006702#2 -4099270#0"  departSpeed="max"/>
    <trip id="104" depart="22880.00" from="4047241" to="4319349" via="-4006702#2 -31241838#1"  departSpeed="max"/>
    <trip id="105" depart="23100.00" from="3998612#0" to="31720632#1" via="-4006705#2 9643180"  departSpeed="max"/>
    <trip id="106" depart="23320.00" from="29900564#4" to="-4006705#1" via="31241848 29900565#3"  departSpeed="max"/>
    <trip id="107" depart="23540.00" from="-4900043" to="-23360299" via="-8402997 -4900739#1"  departSpeed="max"/>
    <trip id="108" depart="23760.00" from="-23605600#0" to="-4047316" via="-35842306#0 4006724#1"  departSpeed="max"/>
    <trip id="109" depart="23980.00" from="-4872369" to="-4006674#1" via="126606716 -4006690"  departSpeed="max"/>
    <trip id="110" depart="24200.00" from="-31720632#1" to="-4006702#2" via="33174302#0 -126606716"  departSpeed="max"/>
    <trip id="111" depart="24420.00" from="23350929" to="-32282774" via="-3998645#2 23805514#1"  departSpeed="max"/>
    <trip id="112" depart="24640.00" from="-31261347" to="3998653" via="8403007 4047378"  departSpeed="max"/>
    <trip id="113" depart="24860.00" from="8402997" to="4006674#2" via="-4006688#4 -31401017#1"  departSpeed="max"/>
    <trip id="114" depart="25080.00" from="3998643#1" to="-4006725#0" via="-31777493#0 -31401018"  departSpeed="max"/>
    <trip id="115" depart="25300.00" from="23805514#0" to="3998653" via="30357194 -3013106#2"  departSpeed="max"/>
    <trip id="116" depart="25520.00" from="4047316" to="8402998#0" via="10425130 -4006702#0"  departSpeed="max"/>
    <trip id="117" depart="25740.00" from="-67076129" to="32320329" via="3013109 -9643180"  departSpeed="max"/>
    <trip id="118" depart="25960.00" from="4392769" to="-23605600#0" via="31255203#0 -31241834#1"  departSpeed="max"/>
    <trip id="119" depart="26180.00" from="23570844#1" to="25472257" via="25472101 4006674#4"  departSpeed="max"/>
    <trip id="120" depart="26400.00" from="32611578" to="-125685391" via="31720632#0 -23605600#1"  departSpeed="max"/>
    <trip id="121" depart="26620.00" from="15259223" to="-3998615#3" via="3013106#2 -4006691"  departSpeed="max"/>
    <trip id="122" depart="26840.00" from="-3013109" to="29900564#0" via="31241835#1 5931612"  departSpeed="max"/>
    <trip id="123" depart="27060.00" from="4900739#0" to="30405358#1" via="122161390 4006675"  departSpeed="max"/>
    <trip id="124" depart="27280.00" from="4319351" to="-23805514#0" via="-28613737 126606716"  departSpeed="max"/>
    <trip id="125" depart="27500.00" from="-31720632#1" to="-32282774" via="-28269601 8403007"  departSpeed="max"/>
    <trip id="126" depart="27720.00" from="4006724#1" to="4006690" via="8402998#2 113939242#0"  departSpeed="max"/>
    <trip id="127" depart="27940.00" from="32302591#0" to="4006675" via="4006687 -31241855#1"  departSpeed="max"/>
    <trip id="128" depart="28160.00" from="23360299" to="-31353573#1" via="-8402998#0 -23605595"  departSpeed="max"/>
    <trip id="129" depart="28380.00" from="-10712011" to="4006701" via="-4900043 -3998612#0"  departSpeed="max"/>
    <trip id="130" depart="28600.00" from="3998615#1" to="-4006688#1" via="-4872369 -9643180"  departSpeed="max"/>
    <trip id="131" depart="28820.00" from="94344941" to="-4006705#0" via="-28613737 113939244#1"  departSpeed="max"/>
    <trip id="132" depart="29040.00" from="-31261347" to="-31241834#0" via="4006693#0 94344940#0"  departSpeed="max"/>
    <trip id="133" depart="29260.00" from="4047309" to="-126606716" via="30350448 25472134"  departSpeed="max"/>
    <trip id="134" depart="29480.00" from="29900564#3" to="8402998#3" via="25472257 -23605600#2"  departSpeed="max"/>
    <trip id="135" depart="29700.00" from="-3998615#1" to="29900564#5" via="4006674#0 -5445204#3"  departSpeed="max"/>
    <trip id="136" depart="29920.00" from="23805514#0" to="67076129" via="10425128#1 113939242#0"  departSpeed="max"/>
    <trip id="137" depart="30140.00" from="30357194" to="30405356" via="29900565#3 -4900741"  departSpeed="max"/>
    <trip id="138" depart="30360.00" from="-4099270#1" to="-32271499" via="5445204#2 -4006674#1"  departSpeed="max"/>
    <trip id="139" depart="30580.00" from="23605595" to="-4047316" via="4006693#1 3998613#0"  departSpeed="max"/>
    <trip id="140" depart="30800.00" from="-31720633" to="31720633" via="-3013106#0 94344941"  departSpeed="max"/>
    <trip id="141" depart="31020.00" from="28613734" to="10425131" via="31255203#0 30405352"  departSpeed="max"/>
    <trip id="142" depart="31240.00" from="-3013107" to="-23570844#2" via="3013107 30350450#0"  departSpeed="max"/>
    <trip id="143" depart="31460.00" from="30751813" to="31261347" via="-3998643#0 4006672"  departSpeed="max"/>
    <trip id="144" depart="31680.00" from="23360299" to="-4392769" via="-32302591#1 -5445204#3"  departSpeed="max"/>
    <trip id="145" depart="31900.00" from="-4006740" to="-23360299" via="3998612#0 -31241835#1"  departSpeed="max"/>
    <trip id="146" depart="32120.00" from="-23570844#2" to="-3998612#2" via="-4099309 31401018"  departSpeed="max"/>
    <trip id="147" depart="32340.00" from="4047316" to="-28613734" via="29900564#4 -5445204#2"  departSpeed="max"/>
    <trip id="148" depart="32560.00" from="-32320329" to="29900565#3" via="30357194 -31241848"  departSpeed="max"/>
    <trip id="149" depart="32780.00" from="-39539626" to="-23360299" via="-3998612#2 -3998613#2"  departSpeed="max"/>
    <trip id="150" depart="33000.00" from="-67076129" to="-23360299" via="-10425128#0 29900565#1"  departSpeed="max"/>
    <trip id="151" depart="33220.00" from="-4006726#0" to="-4006674#0" via="4006726#2 -4006687"  departSpeed="max"/>
    <trip id="152" depart="33440.00" from="32611578" to="5445204#2" via="28613727#0 -8403007"  departSpeed="max"/>
    <trip id="153" depart="33660.00" from="4319351" to="-23570844#1" via="-4006705#2 30405356"  departSpeed="max"/>
    <trip id="154" depart="33880.00" from="-31401017#1" to="-4006703#0" via="-3998643#0 4006705#2"  departSpeed="max"/>
    <trip id="155" depart="34100.00" from="31241848" to="-29900561#1" via="-23805514#1 -29900565#0"  departSpeed="max"/>
    <trip id="156" depart="34320.00" from="-10712013" to="3998645#2" via="-3013109 19796637"  departSpeed="max"/>
    <trip id="157" depart="34540.00" from="-31720633" to="-10425128#0" via="-41973977 -4006668"  departSpeed="max"/>
    <trip id="158" depart="34760.00" from="-3998643#1" to="31982182#1" via="3998613#1 -23805514#1"  departSpeed="max"/>
    <trip id="159" depart="34980.00" from="-4006675" to="4006726#1" via="85355912 31353573#0"  departSpeed="max"/>
    <trip id="160" depart="35200.00" from="-4006693#3" to="-4006702#2" via="-4006702#1 4006688#3"  departSpeed="max"/>
    <trip id="161" depart="35420.00" from="4392769" to="-23570844#1" via="29900564#5 -4006668"  departSpeed="max"/>
    <trip id="162" depart="35640.00" from="30751813" to="10425131" via="25472079 -32302591#3"  departSpeed="max"/>
    <trip id="163" depart="35860.00" from="4006693#2" to="4400949" via="4319353 32270593"  departSpeed="max"/>
    <trip id="164" depart="36080.00" from="85355911#1" to="-125685391" via="-25398494#0 -8402998#0"  departSpeed="max"/>
    <trip id="165" depart="36300.00" from="54105725" to="-4006688#3" via="31241848 -4006675"  departSpeed="max"/>
    <trip id="166" depart="36520.00" from="32271499" to="-23805514#0" via="-4006724#2 44069041#1"  departSpeed="max"/>
    <trip id="167" depart="36740.00" from="28613727#1" to="-31241851#0" via="4900043 4006691"  departSpeed="max"/>
    <trip id="168" depart="36960.00" from="-35842306#1" to="10425131" via="4900041#1 23339459"  departSpeed="max"/>
    <trip id="169" depart="37180.00" from="-4006684" to="31982182#1" via="-31241838#0 30350449"  departSpeed="max"/>
    <trip id="170" depart="37400.00" from="8403001" to="-94344940#2" via="32270592#0 30350450#0"  departSpeed="max"/>
    <trip id="171" depart="37620.00" from="-67076129" to="-23805514#0" via="-32302591#1 4006682"  departSpeed="max"/>
    <trip id="172" depart="37840.00" from="3998645#1" to="31982182#1" via="-5445204#2 4006725#1"  departSpeed="max"/>
    <trip id="173" depart="38060.00" from="4319352#1" to="4006688#1" via="31241855#1 4900739#2"  departSpeed="max"/>
    <trip id="174" depart="38280.00" from="-10712011" to="31720633" via="-32302591#3 31241853#1"  departSpeed="max"/>
    <trip id="175" depart="38500.00" from="4006691" to="10712013" via="-4006726#1 113939242#2"  departSpeed="max"/>
    <trip id="176" depart="38720.00" from="-28631632" to="31241855#1" via="31241851#0 3998615#1"  departSpeed="max"/>
    <trip id="177" depart="38940.00" from="4319352#1" to="-31241853#1" via="-4006705#1 -4047378"  departSpeed="max"/>
    <trip id="178" depart="39160.00" from="4392769" to="31720632#1" via="31720632#0 -3998615#1"  departSpeed="max"/>
    <trip id="179" depart="39380.00" from="4392769" to="-33174302#0" via="-3998615#2 -23605600#2"  departSpeed="max"/>
    <trip id="180" depart="39600.00" from="126606716" to="-15259223" via="-4006702#0 4900739#1"  departSpeed="max"/>
    <trip id="181" depart="39820.00" from="-4006674#3" to="-8402998#1" via="4006702#1 -33174302#0"  departSpeed="max"/>
    <trip id="182" depart="40040.00" from="4006724#0" to="29900564#0" via="4006673 4006682"  departSpeed="max"/>
    <trip id="183" depart="40260.00" from="-3998653" to="4006676" via="-4006688#1 4006682"  departSpeed="max"/>
    <trip id="184" depart="40480.00" from="85355912" to="-32271499" via="3998615#0 -3013106#2"  departSpeed="max"/>
    <trip id="185" depart="40700.00" from="32302591#4" to="4690348" via="-30357194 -94344940#2"  departSpeed="max"/>
    <trip id="186" depart="40920.00" from="32282774" to="4006676" via="35842306#0 3998645#1"  departSpeed="max"/>
    <trip id="187" depart="41140.00" from="30357194" to="4319349" via="3013109 -3998615#3"  departSpeed="max"/>
    <trip id="188" depart="41360.00" from="23605600#0" to="30405352" via="44069041#0 4006674#0"  departSpeed="max"/>
    <trip id="189" depart="41580.00" from="-31720632#1" to="67076129" via="29900565#1 -3998612#1"  departSpeed="max"/>
    <trip id="190" depart="41800.00" from="-3998643#1" to="39539626" via="-31241855#1 25472101"  departSpeed="max"/>
    <trip id="191" depart="42020.00" from="32282774" to="94344940#3" via="3998613#2 30350448"  departSpeed="max"/>
    <trip id="192" depart="42240.00" from="-10425130" to="-32611578" via="31241853#1 -29900565#1"  departSpeed="max"/>
    <trip id="193" depart="42460.00" from="4006703#0" to="30405352" via="31241834#1 25472101"  departSpeed="max"/>
    <trip id="194" depart="42680.00" from="-31241855#0" to="29900561#0" via="-28269601 25472134"  departSpeed="max"/>
    <trip id="195" depart="42900.00" from="4006688#0" to="31982182#1" via="-28613727#1 -29900564#4"  departSpeed="max"/>
    <trip id="196" depart="43120.00" from="23360299" to="3998615#1" via="4006683 -4006688#0"  departSpeed="max"/>
    <trip id="197" depart="43340.00" from="10573414#0" to="-29900564#1" via="4006693#4 3998612#1"  departSpeed="max"/>
    <trip id="198" depart="43560.00" from="3013106#0" to="113939242#0" via="-31241851#0 3998613#0"  departSpeed="max"/>
    <trip id="199" depart="43780.00" from="23350929" to="31261347" via="31241834#0 -4006693#0"  departSpeed="max"/>
    <trip id="200" depart="44000.00" from="-9643180" to="-9643180" via="-4006693#0 4006668"  departSpeed="max"/>
    <trip id="201" depart="44220.00" from="-39539626" to="32302591#1" via="23605600#0 25398494#0"  departSpeed="max"/>
    <trip id="202" depart="44440.00" from="32282774" to="-31255203#1" via="5445204#1 -4047378"  departSpeed="max"/>
    <trip id="203" depart="44660.00" from="-29900564#1" to="4006676" via="32302591#5 25398494#0"  departSpeed="max"/>
    <trip id="204" depart="44880.00" from="31241816#0" to="-23605600#2" via="30405352 -31270441"  departSpeed="max"/>
    <trip id="205" depart="45100.00" from="-4690348" to="-4006691" via="4006688#4 4006688#0"  departSpeed="max"/>
    <trip id="206" depart="45320.00" from="-23605600#1" to="-10425128#0" via="29900567 4686970#1"  departSpeed="max"/>
    <trip id="207" depart="45540.00" from="23805514#0" to="10712011" via="-3998643#1 -31241838#0"  departSpeed="max"/>
    <trip id="208" depart="45760.00" from="-4006701" to="39539626" via="-8402997 122161381"  departSpeed="max"/>
    <trip id="209" depart="45980.00" from="10573414#0" to="-4006688#2" via="-4900739#1 94344940#2"  departSpeed="max"/>
    <trip id="210" depart="46200.00" from="-4872369" to="4006724#1" via="-4006726#1 4006693#4"  departSpeed="max"/>
    <trip id="211" depart="46420.00" from="30405356" to="-4006724#0" via="113939242#1 -32270592#0"  departSpeed="max"/>
    <trip id="212" depart="46640.00" from="-23341293" to="-3998613#2" via="-31777493#1 23605600#1"  departSpeed="max"/>
    <trip id="213" depart="46860.00" from="-3998653" to="94344940#3" via="31777493#0 -23605600#2"  departSpeed="max"/>
    <trip id="214" depart="47080.00" from="15259223" to="4006740" via="44069041#1 3013106#2"  departSpeed="max"/>
    <trip id="215" depart="47300.00" from="4047532" to="31241851#0" via="-32302591#2 94344940#0"  departSpeed="max"/>
    <trip id="216" depart="47520.00" from="31241855#1" to="30405352" via="31270441 4797871"  departSpeed="max"/>
    <trip id="217" depart="47740.00" from="-26188722" to="29900565#2" via="4319353 -28269601"  departSpeed="max"/>
    <trip id="218" depart="47960.00" from="32282774" to="-4006705#0" via="-29900561#1 3998643#2"  departSpeed="max"/>
    <trip id="219" depart="48180.00" from="10573414#0" to="4099270#1" via="-32302591#5 -4006693#0"  departSpeed="max"/>
</routes>
