<?xml version="1.0"?>
<!-- generated on 2019-01-19 18:11:13.651374 by $Id: randomTrips.py 23999 2017-04-21 09:04:47Z behrisch $
  options: -n erlangen.net.xml <doubleminus>fringe-factor 10 -b 0 -e 15000 -p 60 -r trip.rou.xml <doubleminus>seed 12388 <doubleminus>intermediate 19
-->
<routes xmlns:xsi="http://www.w3.org/2001/XMLSchema-instance" xsi:noNamespaceSchemaLocation="http://sumo.dlr.de/xsd/routes_file.xsd">
    <trip id="0" depart="0.00" from="4797872" to="-4099309" via="-37591481 25472079 -41973977 4006702#0 4006683 31353573#0 -3013109 -3013106#0 -31241853#1 113939241 30350445 -29900567 31241848 29900565#1 122161390 -31241848 3013106#1 5445204#1 4400949" />
    <trip id="1" depart="60.00" from="-26188722" to="31720633" via="-25398494#0 30357194 3998643#2 4006674#0 29900564#2 29900565#3 -4006688#4 23570844#2 -31241848 -32302591#1 -4006688#2 37591481 44069041#1 4900739#1 113939242#0 32302591#3 122161390 -4006675 -29900564#1" />
    <trip id="2" depart="120.00" from="54105725" to="26188722" via="113939241 94344940#0 -3013106#0 31353573#1 -3998645#0 -29900564#3 -4900739#2 4006694 -4900739#1 29900564#3 3998615#1 -4006725#1 4319353 -4099270#0 -29900565#0 -4099309 28768072 -3998645#2 4047309" />
    <trip id="3" depart="180.00" from="-10712013" to="3013106#1" via="29900565#3 -3998615#1 19796637 -3998612#1 3998612#0 -29900564#4 -28613727#1 -3013109 31777493#1 4047309 -35842306#0 3998615#2 3998612#0 -31241853#1 -3998615#2 -3998645#0 -4872369 -28613727#1 4319352#1" />
    <trip id="4" depart="240.00" from="23350929" to="30405356" via="-4900741 -4006702#0 5445204#2 -31241838#1 -32270593 -31720632#0 3998615#2 4006724#1 8402998#3 8364476 37591481 3998612#1 29900567 4047446#1 -31241816#1 32302591#0 32270592#0 4006726#0 29900564#1" />
    <trip id="5" depart="300.00" from="-35842306#1" to="28613727#1" via="-4900043 32302591#1 -3998643#1 31241848 31270441 -32270592#1 31270441 31401017#2 -4006688#3 -29900564#2 31241851#1 31241855#1 -3998615#0 -5445204#2 4047309 3998643#1 -94344940#0 4006693#0 31720632#0" />
    <trip id="6" depart="360.00" from="4006724#0" to="67076129" via="-4006674#1 -4006682 -4006674#1 -3998612#2 -3013107 4900739#2 32270593 -4006691 -29900565#2 3998612#2 -31241838#0 -10425128#1 29900564#0 3998645#2 -4006684 4006690 8403007 -31353573#1 -3998615#3" />
    <trip id="7" depart="420.00" from="4686970#0" to="-32302591#0" via="28613727#0 3998645#2 -31401018 31241851#0 -41973977 -4006693#1 28269601 31241816#1 4047446#1 3998615#3 4006724#1 -31401017#1 28613737 -9643180 28269601 32302591#0 41973977 -4099309 -4900043" />
    <trip id="8" depart="480.00" from="4006682" to="4006702#2" via="3013107 -28269601 29900564#4 4047446#1 4797871 30405352 -3998643#0 -32302591#0 -4006672 4006688#2 31401018 122161390 8402998#3 -32302591#4 -31241816#0 4686970#1 8403007 4006674#4 -4006688#4" />
    <trip id="9" depart="540.00" from="-9643180" to="31982182#1" via="23605600#0 4006693#2 -31241838#0 3998615#3 -4047378 4006688#2 31777493#0 -4900043 -4006672 4006726#0 4006688#2 32302591#5 -31241855#1 -4006724#1 113939244#2 4006726#1 31241848 8403001 31982182#0" />
    <trip id="10" depart="600.00" from="4319353" to="28631632" via="-94344940#0 31241851#1 28269601 -28613737 23341293 -31241851#2 -4006702#0 -3998612#1 4006702#1 113939241 30405358#1 30350445 -9643180 -10425128#0 -4006688#4 3998613#0 31241834#1 4006693#4 31255203#1" />
    <trip id="11" depart="660.00" from="4900739#2" to="-29900564#1" via="122161390 4006688#3 4900043 -31241834#1 30350450#1 -29900565#0 4006694 32302591#0 113939242#2 -4006687 -29900564#2 113939242#2 -31270441 3998643#0 -3998615#1 -28269598 -4099309 4006702#0 3998612#0" />
    <trip id="12" depart="720.00" from="4900739#2" to="3998615#1" via="-31241851#2 -32302591#3 4686970#1 -31241853#1 4900739#2 -25398494#0 -3998645#1 3998615#0 4047378 31241855#1 4006674#2 -32270592#0 32302591#2 8364476 31401017#1 113939242#1 31241853#1 4006668 -29900564#3" />
    <trip id="13" depart="780.00" from="32270593" to="10425128#0" via="28613737 4686970#0 31270441 4006688#3 3998615#3 -3013106#2 32270592#1 31241816#3 32270595 -4900739#1 -4047378 3998612#0 8364476 3998613#0 -3998643#1 28613737 31241838#1 31270441 4872369" />
    <trip id="14" depart="840.00" from="4006705#0" to="67076129" via="-4006725#1 -4006674#1 29900561#0 29900567 29900564#2 -23605600#2 -4006702#1 -31353573#0 -4006683 -3998615#1 -4006687 -4006674#4 -23805514#1 3998643#0 10419402 -3998645#0 3998643#2 -31241851#0 10425128#1" />
    <trip id="15" depart="900.00" from="4392769" to="-4006703#0" via="4900741 -25398494#0 30350448 4006705#2 -31401017#1 29900561#0 4900739#1 4686970#0 113939241 25472299 -41973977 -4006674#1 -25398494#0 85355912 29900565#1 -4006693#3 -31241816#3 30405358#1 -23605595" />
    <trip id="16" depart="960.00" from="23605595" to="31720632#1" via="3998643#0 -3998612#0 -31241853#2 -31241855#1 4006690 4006724#1 4006683 -31241855#1 29900561#1 -4006702#2 31401017#0 -3013106#1 -4006675 -4006688#4 -37591481 -4006674#1 25472129 4006693#0 4686970#0" />
    <trip id="17" depart="1020.00" from="31241835#0" to="4006676" via="4900741 29900565#1 4797872 -23341293 3998645#1 -4006705#2 -9643180 29900561#1 -31401017#1 4047378 31353573#1 126606716 -4006702#1 -4900741 31241834#1 30350448 4006693#4 31241816#1 -8402998#0" />
    <trip id="18" depart="1080.00" from="125685391" to="-23350930" via="31777493#0 4006693#2 -4006674#4 -28613727#1 -31241816#0 4006682 4006688#1 31401017#1 31270441 37591481 -126606716 31241853#2 -29900564#5 30405358#1 4900041#2 -41973977 3998643#0 -29900565#1 -4900739#2" />
    <trip id="19" depart="1140.00" from="4319351" to="-23570844#1" via="4006673 29900564#5 -23805514#1 113939242#2 -3998645#2 31777493#0 4006691 30751813 -28613727#0 -29900564#1 23341293 4686970#1 4006674#2 30350445 10573414#1 -31777493#0 33174302#1 4006726#0 8402998#1" />
    <trip id="20" depart="1200.00" from="32271499" to="-31241816#3" via="30405356 31241834#1 5445204#2 31241848 31241851#1 4047378 4099270#0 -28613737 31241848 -31241816#1 31255203#1 30350450#1 -30357194 -8402998#1 10573414#1 4006724#2 32302591#2 -31241851#0 -5445204#1" />
    <trip id="21" depart="1260.00" from="35842306#0" to="39539626" via="4006702#2 30350450#2 3998615#0 23605600#0 -28613737 28613737 -29900565#2 -28613727#1 -8402998#0 -29900564#5 4006674#1 3998612#2 -3013106#0 4900739#2 3998643#2 29900564#5 -29900564#3 -31241834#0 10425128#1" />
    <trip id="22" depart="1320.00" from="4900739#1" to="-31353573#1" via="23805514#1 4797871 4006688#4 -4006693#4 44069041#0 35842306#1 23339459 -4006724#1 94344940#0 4006725#1 4006724#2 3013106#2 -94344940#2 -32302591#0 3998612#1 31241855#0 -9643180 3998613#2 32302591#3" />
    <trip id="23" depart="1380.00" from="-3998645#2" to="4047309" via="31241848 32270592#0 3013106#2 41973977 -41973977 3998615#3 -41973977 4006674#2 -4006703#1 23605595 113939242#0 4047446#0 3013106#2 113939242#1 28613737 4006688#0 -32302591#0 25398494#0 -4006726#0" />
    <trip id="24" depart="1440.00" from="3998643#0" to="94344940#3" via="4006674#2 4686970#0 -29900567 4006688#0 30357194 -23605600#1 4006688#0 -31401017#2 4900041#1 31241838#0 -31241816#3 -4006693#2 -5445204#1 10425130 -29900565#1 4900041#2 4319352#0 32270593 -4099309" />
    <trip id="25" depart="1500.00" from="-94344940#3" to="-4392769" via="4099309 -31401018 4006674#4 -25398494#0 25472101 4006726#0 -41973977 3013106#1 -4006668 -31353573#1 -3998612#0 3998612#2 4006702#0 -4006693#1 -4006726#0 -29900561#0 28613737 29900564#0 -4006684" />
    <trip id="26" depart="1560.00" from="-32270593" to="4690348" via="31353573#1 -10419402 -32270592#0 -3998645#0 29900565#2 -29900565#3 44069041#1 4900041#3 -33174302#1 32302591#5 -30357194 4006693#2 -32270592#1 -29900564#2 -4006726#0 4900739#2 94344941 -31777493#0 31241834#0" />
    <trip id="27" depart="1620.00" from="4797871" to="-4392769" via="28269601 -3013109 32270592#1 4006688#1 4686970#1 -4006688#2 4006674#3 -4099270#0 -32302591#3 31241838#0 29900564#0 -4872369 10425128#1 30350450#2 10425130 31720632#0 85355911#0 3013106#0 29900565#2" />
    <trip id="28" depart="1680.00" from="-3998653" to="3013106#0" via="-3013106#2 -32302591#4 4006688#4 -4006687 -4006674#2 -3998645#1 -35842306#0 32270592#0 4006705#1 -23605600#2 28768072 -4900741 4006674#4 3998613#0 4006674#2 -4006688#3 -37591481 32302591#4 30350450#2" />
    <trip id="29" depart="1740.00" from="-31241816#1" to="29900561#1" via="113939241 31241855#1 113939242#0 29900561#0 -29900567 -31241851#1 113939242#1 4006683 -4006672 10573414#1 4006675 -4006702#0 -29900564#3 10425128#0 -31241835#1 31241838#1 -3998643#2 31241816#3 126606716" />
    <trip id="30" depart="1800.00" from="32271499" to="-29900564#2" via="-32302591#2 28613727#0 8403007 94344940#0 8402998#2 4006673 -94344940#0 31777493#1 4006674#3 -31255203#1 -4872369 4797872 -29900565#3 10425130 29900564#3 31241853#2 5445204#1 32302591#1 -31777493#0" />
    <trip id="31" depart="1860.00" from="31270441" to="4006740" via="113939242#2 29900564#0 33174302#0 -4006726#2 -31241851#1 -31353573#1 5931612 8364476 -31255203#1 -8402997 31353573#1 31241816#0 28613737 29900565#0 23605600#0 8403001 -5445204#3 4900041#3 126606716" />
    <trip id="32" depart="1920.00" from="31241835#0" to="-3998615#1" via="4006705#1 4006726#0 -31241835#1 10425128#0 29900561#1 31353573#0 -3998615#3 30751813 30751813 -8402998#3 29900564#0 4006693#3 -31241851#0 -29900564#4 -3998615#1 -31241816#3 3998612#0 28768072 -4900741" />
    <trip id="33" depart="1980.00" from="4006725#0" to="-23570844#1" via="-4006674#0 -4006702#2 -31241835#1 -29900564#3 29900564#4 -23805514#1 31401017#1 4900041#2 31353573#0 -29900561#1 -23805514#1 -94344940#0 8364476 -4006725#1 8402998#2 -4047378 28613727#0 -4006702#1 4006682" />
    <trip id="34" depart="2040.00" from="-4006740" to="-23350930" via="-31401017#1 29900564#0 -3998612#2 4047446#0 31241816#3 3998643#0 10425128#1 -31241816#3 4900041#2 -8403007 -4006674#4 -31241835#1 29900561#1 -31241848 -29900564#4 -23605595 -8402998#0 -35842306#0 28613727#0" />
    <trip id="35" depart="2100.00" from="-10712011" to="30350445" via="3013106#0 4099270#0 3998645#0 -32270592#0 -23605600#1 -31241853#2 4686970#0 3998615#0 4872369 35842306#0 4006683 -3998643#2 -31401018 32302591#5 4006702#0 -31777493#1 3998643#1 25472101 -28613727#1" />
    <trip id="36" depart="2160.00" from="4392769" to="10425131" via="30350450#0 -31241838#1 31720632#0 23570844#2 -31241834#1 -31241838#0 3998643#1 -3998615#0 4006675 -31401017#1 -4047532 -32302591#4 4006702#1 4400949 3998613#1 5445204#1 4006674#2 94344940#0 4006705#2" />
    <trip id="37" depart="2220.00" from="-3998613#1" to="--5558" via="29900564#1 4900739#1 31401017#2 4006674#2 4797871 4006674#4 25472101 -32270595 31241853#1 -3998613#2 -31255203#0 4006688#0 32302591#5 -4006674#0 -4006703#1 -31270441 31241838#1 4006684 4006688#2" />
    <trip id="38" depart="2280.00" from="30405358#0" to="26188722" via="-31241855#0 32270592#1 4047309 -3998613#0 4006683 32270592#1 -3998612#2 85355911#0 -3998615#3 31353573#1 4006689 -8402998#1 -4047378 -3998612#2 28269601 31401018 -3998612#2 -23605600#2 32302591#4" />
    <trip id="39" depart="2340.00" from="-26188722" to="31241838#0" via="94344940#0 3998643#0 10425128#0 35842306#1 33174302#0 -10425130 4006689 -25398494#0 32270592#0 3998612#2 4006725#1 -5445204#1 -4872369 30350445 -113939241 32302591#3 32270592#0 -32302591#4 3998615#3" />
    <trip id="40" depart="2400.00" from="23570844#1" to="94344940#3" via="29900565#2 23805514#1 31777493#1 -29900565#2 29900564#0 23605600#2 -31241834#1 -31241838#1 -126606716 30350449 25398494#0 8402998#3 -3998643#1 -4047532 -31241848 -32302591#2 30357194 -4006693#4 4006693#4" />
    <trip id="41" depart="2460.00" from="-32320329" to="30350449" via="-23605600#1 3013106#2 -4006688#0 30350450#2 -4006690 25472129 -4006693#4 29900564#5 31401018 4900041#2 94344940#0 4797872 -31720632#0 32302591#0 4006675 4006682 28269598 4006688#3 -10425130" />
    <trip id="42" depart="2520.00" from="4006725#0" to="3998653" via="-3998612#0 29900561#0 85355911#0 -29900565#1 4099270#0 -4006705#1 31241851#2 -4006703#1 31353573#1 -10419402 44069041#1 4006724#2 10573414#1 -35842306#1 -4006726#2 4006688#4 4006726#1 31241853#2 31241853#1" />
    <trip id="43" depart="2580.00" from="31241853#0" to="3998612#1" via="5445204#1 85355911#1 -31241816#0 -29900561#1 -25398494#0 28613727#0 31401017#1 -23341293 -32302591#5 -4099270#0 -4006693#1 113939244#2 4006687 23339459 -126606716 -35842306#1 -4006688#1 -31241851#2 -31777493#0" />
    <trip id="44" depart="2640.00" from="30350445" to="10712013" via="-32302591#3 94344940#0 4047446#0 4047309 -32270592#1 -31241834#1 -4006693#1 31241851#1 113939244#1 10419402 -4006693#3 31241838#1 25472101 23339459 -37591481 -4006726#1 3013107 31401017#2 32302591#2" />
    <trip id="45" depart="2700.00" from="-10425131" to="3013106#2" via="-8402998#2 31241853#1 -29900561#1 4797871 4900041#1 -4006693#3 4006702#1 31982182#0 -23605600#2 37591481 31241838#0 -31241838#1 94344940#2 -3998613#1 -31241838#0 -28613737 -31241848 29900565#0 3013106#0" />
    <trip id="46" depart="2760.00" from="10573414#0" to="31255203#0" via="-4006693#1 -28613727#0 -4006684 -32302591#5 31241848 4006702#2 -10425128#1 126606716 113939242#1 126606716 4006668 31241838#1 -31241838#0 -32302591#3 29900564#3 32270593 -5445204#3 -31401017#1 -31255203#0" />
    <trip id="47" depart="2820.00" from="-4006687" to="-32302591#2" via="113939244#2 28269598 30350450#1 4006674#4 8402998#2 5445204#2 -31270441 23341293 4099270#0 4006688#3 41973977 8402997 4006690 32302591#4 29900564#5 -126606716 10425128#0 4006725#1 44069041#1" />
    <trip id="48" depart="2880.00" from="4006705#0" to="-4006724#0" via="-32270595 3998615#1 -4006693#1 -8402998#3 -3998615#2 41973977 23605600#2 4006672 -5445204#3 3998613#2 31777493#0 23570844#2 -29900564#0 113939242#0 -32302591#2 -29900565#0 4006693#2 4006724#1 30350449" />
    <trip id="49" depart="2940.00" from="-67076129" to="10712011" via="-31353573#1 4006705#1 -3998615#0 -32302591#2 -3013107 4006674#1 33174302#0 4006693#3 -31241816#0 9643180 4006688#1 4006694 -3013106#0 -4006705#2 -32302591#3 -4006668 -3013106#0 -32270595 25472299" />
    <trip id="50" depart="3000.00" from="33174302#0" to="31241835#1" via="-113939241 32302591#0 -31241838#1 10425130 -4006693#1 -23805514#1 4006688#0 8402998#0 4006688#2 -4099270#0 25472134 -3998643#0 -31241834#0 -4006702#2 8402998#0 -35842306#0 5445204#2 -31401018 -3998645#0" />
    <trip id="51" depart="3060.00" from="-28631632" to="23605600#0" via="-31241855#1 -4006690 3998615#3 -30357194 4006724#1 28613727#0 44069041#1 -3998613#2 4900041#2 25472079 -5445204#2 4006688#1 4900741 -4006668 33174302#0 5445204#1 -3998645#0 4900041#2 -3998645#1" />
    <trip id="52" depart="3120.00" from="-32320329" to="4047241" via="94344940#0 -4006668 -31241835#1 -3998615#2 28613727#1 -28613727#0 4797872 -4006674#4 28768072 -5445204#2 31241816#1 -4900739#1 3013106#2 -4006674#2 -31241851#0 -4006726#2 29900564#2 32302591#2 3998612#2" />
    <trip id="53" depart="3180.00" from="4006703#0" to="32270592#0" via="4319353 4006674#2 4006674#2 -4006684 122161390 4006689 -29900567 4319353 -23605600#2 31401017#0 32270592#1 -4006702#0 10573414#1 4006724#2 -31401018 -32270593 -4047378 30405356 -3998613#2" />
    <trip id="54" depart="3240.00" from="4319351" to="28631632" via="-3998615#1 113939242#1 32302591#2 29900564#2 -3998613#0 4006694 -94344940#0 32302591#1 29900564#0 4006724#1 -8402998#1 -10573414#1 10425130 4006688#0 -3998645#1 -31241851#0 3998615#2 23570844#2 31777493#1" />
    <trip id="55" depart="3300.00" from="4872369" to="-4392769" via="29900564#4 4006726#1 33174302#1 -35842306#1 4006724#1 -23605600#2 4006702#1 4006688#3 -35842306#1 -4099270#0 8402998#2 -4872369 -31241838#0 32270592#1 -4006725#1 85355911#1 8402998#0 3998612#1 31270441" />
    <trip id="56" depart="3360.00" from="25210699" to="3998613#1" via="8402998#0 -23805514#1 -29900564#4 3998612#2 3998613#2 8402998#2 3998645#2 -31401017#1 113939242#1 -4006705#1 23339459 31720632#0 3998645#2 -3998643#2 -8402998#3 23570844#2 4099309 4900041#0 25472129" />
    <trip id="57" depart="3420.00" from="-26188722" to="-5445204#2" via="28613727#0 -3998645#2 4047241 4797871 -10425128#0 -4006705#2 4006688#0 5445204#3 113939244#1 -32302591#3 -31241855#0 3998612#1 -31241834#1 31401018 -4006688#3 4006705#2 31241851#2 10573414#1 31720632#0" />
    <trip id="58" depart="3480.00" from="-94344940#3" to="3998612#1" via="3998643#0 -4006691 35842306#0 -126606716 30357194 -4006724#2 -31255203#0 -29900564#0 32302591#2 4900041#0 -4006726#1 31241853#2 4900739#1 25472257 23341293 4006688#4 4006684 94344940#0 -31255203#0" />
    <trip id="59" depart="3540.00" from="23805514#0" to="-4006693#3" via="113939244#1 30405356 -29900564#4 30405358#1 -4900739#2 31777493#0 8403007 33174302#0 4099309 28768072 -4006724#2 37591481 -3998615#3 23805514#1 3013106#0 4006693#4 -4006688#0 -3013106#0 31241851#2" />
    <trip id="60" depart="3600.00" from="23360299" to="-4006683" via="-4006703#1 23605600#0 -31401017#2 23605600#1 3998645#0 -4900739#1 23605595 5931612 31777493#0 30350445 23805514#1 32270595 122161390 4006688#3 4006724#2 4006694 -23605600#0 -5445204#1 31241838#0" />
    <trip id="61" depart="3660.00" from="113939241" to="8402998#3" via="-31241838#0 28613727#0 4006689 31270441 -9643180 4006688#2 -126606716 25398494#0 -5445204#3 4900041#1 4900041#1 4319352#0 4006687 -29900564#2 4006724#2 30751813 4319352#0 4006668 31241838#0" />
    <trip id="62" depart="3720.00" from="-31241834#1" to="10425130" via="122161381 8402997 113939242#0 -4006674#2 23339459 31353573#0 -31241816#3 5931612 4006688#4 4006693#0 29900564#3 4006674#3 4006683 4006693#1 -4872369 -4047378 -126606716 3998643#1 31270441" />
    <trip id="63" depart="3780.00" from="10425128#0" to="4797871" via="-31270441 23605600#0 8364476 -31401017#2 4006702#0 -4047532 -113939241 -3013109 4006688#3 31241838#1 4006688#1 -3998615#0 4006674#4 31353573#0 -5445204#3 -31720632#0 25398494#0 4006724#1 -4006726#1" />
    <trip id="64" depart="3840.00" from="-4006701" to="10712011" via="-4006687 30405352 94344940#0 3998645#2 10425130 -32302591#0 -32302591#5 -3998612#1 31241851#0 -23605600#2 -10573414#1 31241853#1 -4006683 4006673 -29900561#1 94344940#2 4797872 -4006690 -4006690" />
    <trip id="65" depart="3900.00" from="32271499" to="-4006724#0" via="-4006688#0 4006688#3 8364476 -4006725#1 31241848 -4047378 4006725#1 30350448 4006668 -3998645#0 -35842306#0 -3013109 -32302591#1 4006688#2 4006724#2 -31241851#2 -31241853#2 -4900739#1 -4006682" />
    <trip id="66" depart="3960.00" from="-29900564#1" to="--5558" via="-94344940#0 3998643#1 5445204#3 31401017#1 4686970#0 -31241838#1 113939244#1 31241835#1 -4006687 -31241834#0 25472134 31241835#1 -28269601 -4047378 31241851#2 94344940#0 31777493#0 4099309 4006693#0" />
    <trip id="67" depart="4020.00" from="4006693#3" to="113939244#1" via="4099270#0 4006702#2 3998612#2 29900564#5 -4006693#4 -4006703#1 -32302591#5 4047446#1 23605600#1 4900739#2 30405356 -31353573#1 -32270592#0 30350450#0 31241855#1 31241855#1 4900043 31255203#1 31241834#0" />
    <trip id="68" depart="4080.00" from="-10712011" to="26188722" via="3998645#0 30751813 4006688#4 31255203#1 -3998645#1 10419402 -31401017#2 -32302591#5 25472257 4900741 31241853#1 3998615#0 -4900739#1 31401017#1 -4006726#1 -31241838#0 29900564#0 4400949 32270592#1" />
    <trip id="69" depart="4140.00" from="31241853#0" to="5445204#1" via="-4006702#1 -3013107 4006694 113939242#0 -28613727#1 10425130 -4900741 31401017#0 -4900739#2 -31401017#2 -31241816#0 4319352#1 23605595 31241816#0 -23605600#2 3998645#1 -29900561#1 30405356 -23605600#2" />
    <trip id="70" depart="4200.00" from="-37591481" to="31720633" via="-31241816#1 8402998#1 -32270595 -10425128#0 4006702#0 4006726#2 25472299 -8402998#2 -31241816#3 10425128#0 31255203#1 4006724#1 -3998612#0 4006693#1 -31241851#0 4006705#2 31982182#0 8402998#0 4006693#3" />
    <trip id="71" depart="4260.00" from="4900739#0" to="10712013" via="-5445204#3 -31241848 4006694 35842306#0 4006675 -4006703#1 31353573#1 4797872 -29900564#0 4006690 -4099309 29900561#1 23605600#2 4006693#0 -5445204#1 32302591#5 4319352#0 -31241838#0 -33174302#1" />
    <trip id="72" depart="4320.00" from="31241853#0" to="-23805514#0" via="29900565#2 3013106#1 -25398494#0 -4006705#2 4006682 -29900564#1 -31241855#0 4006673 113939241 4900041#3 -30357194 -29900567 -3998612#2 -31241851#1 31982182#0 -31401018 -31241848 31241816#0 -4006693#3" />
    <trip id="73" depart="4380.00" from="-4006705#1" to="-23805514#0" via="-4006684 4006688#1 -31720632#0 4006688#4 -23570844#2 4006694 28613737 4006688#3 94344941 -4006693#4 94344940#2 10573414#1 -31720632#0 3013109 32302591#2 -4099270#0 -31401017#2 32302591#1 -4006702#2" />
    <trip id="74" depart="4440.00" from="113939244#0" to="113939242#0" via="-4006702#0 3998612#0 23605595 -31241834#1 -10573414#1 -31353573#1 31353573#0 4006690 30350448 3013106#2 31241853#2 10425128#1 -4006684 -31401017#0 -37591481 25398494#0 4006688#4 -23605595 -35842306#1" />
    <trip id="75" depart="4500.00" from="-5558" to="32320329" via="-4006675 10573414#1 4006693#3 32270592#0 4006688#3 -4006705#1 -31401017#0 -4006693#1 4319353 32302591#1 -29900564#5 4006724#2 -3998645#1 31241851#2 -4099309 4047378 -30357194 3998645#1 -3998615#2" />
    <trip id="76" depart="4560.00" from="-3998653" to="-31241835#0" via="-31401017#2 -35842306#0 -31353573#1 10425128#0 -29900565#0 -23341293 8403001 -94344940#2 -31241851#2 -29900561#0 32270592#1 -3998643#0 -31255203#0 -4006690 31270441 -126606716 -3998615#2 -4900739#1 -29900564#2" />
    <trip id="77" depart="4620.00" from="31982182#0" to="-23805514#0" via="-32270595 4797872 31353573#0 -4006726#1 -31720632#0 25472079 -94344940#2 -29900564#5 -31241816#0 31241838#1 4006673 85355912 -32302591#0 -29900565#2 4900041#0 -4006705#1 -8402998#1 94344940#0 -4900043" />
    <trip id="78" depart="4680.00" from="-26188722" to="31720633" via="28269598 113939242#0 8402997 122161381 8402998#0 -3998643#1 -31401018 -8403001 -31270441 32302591#3 29900564#3 -3998612#0 31255203#1 -23605600#2 3998643#2 4900043 -35842306#0 -31777493#1 8402998#1" />
    <trip id="79" depart="4740.00" from="-4690348" to="94344940#3" via="8402998#2 4006724#1 29900567 44069041#0 4006688#1 85355911#0 4686970#1 4797872 4006693#3 -29900564#2 -31255203#1 -5445204#3 30350449 3998613#1 23605600#2 -126606716 4006726#2 31401018 4099309" />
    <trip id="80" depart="4800.00" from="-67076129" to="10712011" via="-10419402 -5445204#1 -32302591#1 10573414#1 23339459 -29900564#2 -32302591#5 -37591481 8403007 -3998645#0 113939244#0 29900564#4 5445204#3 31241838#0 -37591481 4006693#4 -3998645#2 4006674#0 -31241838#0" />
    <trip id="81" depart="4860.00" from="-4690348" to="28613727#1" via="113939242#1 4686970#1 31241834#0 5445204#1 4006693#2 4900739#1 23570844#2 31255203#1 28269601 -4900043 10425128#0 3998615#2 -31401017#1 8402998#1 4006693#4 126606716 -3998613#2 -31241834#0 -32270595" />
    <trip id="82" depart="4920.00" from="-3013106#2" to="4099270#1" via="-8403007 -23341293 -4006674#2 4006693#0 -29900564#0 -8402997 122161381 4099309 31255203#1 31401017#1 3013106#2 -4006688#3 -32302591#4 8402998#3 4006674#1 113939244#0 30405356 -31401018 122161390" />
    <trip id="83" depart="4980.00" from="32611578" to="-31241853#0" via="31241838#0 29900565#0 -31241855#0 31241851#2 -41973977 4006691 30350449 -4006726#1 122161381 -9643180 31241851#1 -29900564#1 8402998#1 4686970#0 -4006690 94344940#0 -31241838#1 30357194 32270595" />
    <trip id="84" depart="5040.00" from="31982182#0" to="4690348" via="32302591#4 29900564#0 31777493#0 31777493#0 -23605600#2 -4047532 3013107 -31401017#2 -23341293 4006687 -31353573#1 -23605600#1 -23805514#1 31401018 23605600#2 29900564#4 -33174302#0 -4006725#1 -31241848" />
    <trip id="85" depart="5100.00" from="-4006740" to="25472101" via="4006675 29900565#3 29900561#1 -31241851#0 -4006705#1 29900561#0 -3998612#2 4006672 4006688#2 -4006725#1 4047309 28768072 -37591481 31241834#1 10419402 4400949 -3998615#1 -31241834#1 -31241848" />
    <trip id="86" depart="5160.00" from="8403001" to="4006676" via="-23605600#0 -3013106#2 3998613#1 4006675 31982182#0 113939244#2 4797872 3998615#3 29900564#4 4797871 -3013109 4006674#1 4319353 -31241848 -3998643#2 -29900565#2 -23570844#2 -31353573#0 30350450#0" />
    <trip id="87" depart="5220.00" from="-3998653" to="3998615#2" via="-29900561#0 122161390 -4900739#1 -31401017#0 4900739#2 4686970#1 4006688#2 -4006691 3998613#2 4900041#2 -8402998#1 -4006724#1 5445204#1 -29900564#5 44069041#0 -4006703#1 -4006705#1 -4047378 31777493#0" />
    <trip id="88" depart="5280.00" from="23350929" to="25472079" via="-29900564#0 -31241851#0 -32270592#0 -31777493#1 -5445204#1 29900567 32302591#1 32302591#0 -31401018 -23570844#2 113939244#1 4006693#4 4900043 32270595 126606716 -4047532 -4006675 113939241 -35842306#1" />
    <trip id="89" depart="5340.00" from="31241851#1" to="4319349" via="30350450#0 31241835#1 31401017#1 31777493#0 23805514#1 4047532 4006689 -4006674#0 37591481 31241855#1 -3998612#1 30350445 -23605595 4006674#0 29900561#1 -4006702#1 85355912 113939242#1 -10425128#1" />
    <trip id="90" depart="5400.00" from="23805514#0" to="31261347" via="-28613737 -4006688#1 -3998645#0 -8402998#2 4006688#0 31241835#1 -31255203#1 32270593 -4900739#2 3013107 4006683 4099309 31241851#2 4872369 -29900565#2 29900565#1 -29900567 3998643#0 31777493#1" />
    <trip id="91" depart="5460.00" from="4006725#0" to="-23350929" via="-31241851#0 -4006683 94344940#2 -33174302#1 -4006702#0 32270595 -4006693#0 -29900564#0 -8403001 -31720632#0 -3013106#2 3013106#0 -4006693#4 25472299 -4006674#0 -3998615#1 28269601 19796637 -35842306#1" />
    <trip id="92" depart="5520.00" from="-10425131" to="-29900564#0" via="-23570844#2 4006703#1 3998615#1 -8402998#2 4872369 3998645#2 94344941 -31241848 23339459 4006673 -10425128#0 4006674#4 28269598 -4006675 19796637 31241851#2 4006702#2 4006702#2 4006683" />
    <trip id="93" depart="5580.00" from="31241851#0" to="10425131" via="-94344940#0 113939241 -4006702#2 -4900739#2 31270441 3998613#2 31353573#1 4006725#1 31241853#1 -3013107 4006674#4 -4006702#1 23605600#1 19796637 -3998645#0 -4006690 25472129 8402998#2 8403007" />
    <trip id="94" depart="5640.00" from="-31720633" to="-54105725" via="4797872 -4006674#2 3998612#2 31241834#1 -23605600#0 -33174302#0 29900564#3 -25398494#0 41973977 31241816#3 3998643#0 9643180 10425130 -4900043 4900739#1 4900043 31241855#0 -31401017#0 4006675" />
    <trip id="95" depart="5700.00" from="-31241834#1" to="-23360299" via="4900043 -4006674#1 31777493#0 -28613727#1 3998612#0 32302591#4 -31720632#0 33174302#1 4006668 -4006693#3 -8402997 -10419402 -9643180 31241834#0 3013107 -32270593 -5445204#3 -4006675 4006693#3" />
    <trip id="96" depart="5760.00" from="4006688#4" to="-32271499" via="25472129 -29900565#1 -4006688#4 -4006684 -4006703#1 31777493#1 10419402 -29900564#0 31241816#0 -29900567 -31241851#1 113939242#2 -4099270#0 5445204#3 94344940#0 3998612#1 29900564#0 10419402 32302591#1" />
    <trip id="97" depart="5820.00" from="-8403001" to="-4900741" via="4319353 31401017#2 4006674#1 -31777493#1 -4006703#1 -5445204#2 25472079 -4006702#0 23605600#2 3998613#0 -31353573#0 4319352#1 4006724#1 -23605600#1 31241853#1 31241816#3 -3998643#1 28613727#0 31255203#0" />
    <trip id="98" depart="5880.00" from="-28631632" to="-32302591#3" via="-3013106#1 -28269601 -23605600#2 3998615#1 3998615#0 30405352 -126606716 -28613727#1 -31241851#0 -8402997 -29900564#2 -3998615#3 -31270441 94344940#0 25398494#0 -28269598 -29900565#1 32270592#1 -31241855#1" />
    <trip id="99" depart="5940.00" from="-32302591#0" to="31241838#0" via="122161381 28613737 30751813 30350449 -41973977 4006674#3 31401017#2 3998612#1 -3998612#2 32270595 -4006691 28269601 113939244#1 4099309 31241816#1 -35842306#1 23605595 31241851#0 4686970#1" />
    <trip id="100" depart="6000.00" from="23350930" to="-126606716" via="32302591#4 -3998612#1 -4900739#1 8403001 -31241848 4900041#2 35842306#0 31720632#0 -4900741 -31241816#0 -3998645#0 4006724#1 31777493#1 4686970#1 -32302591#3 -4006693#0 -29900564#4 -32302591#2 3998615#0" />
    <trip id="101" depart="6060.00" from="4006724#0" to="-4006674#3" via="44069041#0 -3998613#2 -4006674#2 4006725#1 -4006726#0 4006675 -3998615#1 4006693#1 -29900561#1 -29900564#5 -31241855#1 29900564#2 -10419402 8402998#1 -4006688#1 -3998613#2 31353573#0 -9643180 -4047532" />
    <trip id="102" depart="6120.00" from="5445204#3" to="31982182#0" via="-3998643#0 32302591#3 4006674#1 -31241838#1 4006726#0 -10573414#1 4047446#0 31777493#0 29900565#1 -4900741 -4006693#0 31401018 4900741 31241853#2 -94344940#0 4047241 -4006693#3 30751813 23605600#2" />
    <trip id="103" depart="6180.00" from="23805514#0" to="4900041#2" via="-4099309 30350448 4006705#1 -31241855#1 4400949 28768072 -4006726#1 -32302591#1 23605600#1 31982182#0 4006693#0 3998613#0 -29900564#2 31241816#0 28768072 -23570844#2 113939244#0 -4006675 9643180" />
    <trip id="104" depart="6240.00" from="31720632#0" to="-23805514#0" via="85355912 -31255203#1 -113939241 -32270593 -28613737 35842306#1 122161381 -31270441 4900041#2 -3998615#3 28613737 31720632#0 85355911#1 4006672 4400949 -31241816#0 -10573414#1 -3998615#3 32302591#0" />
    <trip id="105" depart="6300.00" from="-10425131" to="4006693#4" via="-3013106#1 94344940#0 -23605600#2 32270593 -29900561#0 31255203#0 29900564#4 31401017#0 8402997 31270441 -31241838#0 -31720632#0 32270592#1 4006703#1 3998615#0 4006702#0 31777493#0 -8402998#0 -29900564#0" />
    <trip id="106" depart="6360.00" from="-126606716" to="-4006724#0" via="-25398494#0 30405352 32302591#5 3998612#0 -31241835#1 -3013106#2 4006726#2 30350445 -8403001 -5445204#2 25472079 -31241855#0 3998612#1 -31241816#3 -4006724#1 -4006691 28613727#1 4047378 29900565#1" />
    <trip id="107" depart="6420.00" from="-3998612#1" to="-4047316" via="-4006702#2 -31401017#1 -32270592#0 4006674#1 -23341293 4006724#1 -8402998#2 4006674#1 4006674#0 25472299 3998613#2 4006674#0 29900565#3 -4006726#0 28613727#0 -4006688#0 3013109 -29900565#1 -3998615#1" />