<?xml version="1.0" encoding="UTF-8"?>

<!-- generated on Sat Feb  2 22:33:52 2019 by SUMO duarouter Version 0.30.0
<?xml version="1.0" encoding="UTF-8"?>

<configuration xmlns:xsi="http://www.w3.org/2001/XMLSchema-instance" xsi:noNamespaceSchemaLocation="http://sumo.dlr.de/xsd/duarouterConfiguration.xsd">

    <input>
        <net-file value="erlangen.net.xml"/>
        <trip-files value="trips.trips.xml"/>
    </input>

    <output>
        <output-file value="trip.rou.xml"/>
    </output>

    <processing>
        <ignore-errors value="true"/>
    </processing>

    <time>
        <begin value="0.0"/>
        <end value="48400.0"/>
    </time>

    <report>
        <no-warnings value="true"/>
        <no-step-log value="true"/>
    </report>

</configuration>
-->

<routes xmlns:xsi="http://www.w3.org/2001/XMLSchema-instance" xsi:noNamespaceSchemaLocation="http://sumo.dlr.de/xsd/routes_file.xsd">
    <vehicle id="1" depart="0.00" departSpeed="max">
        <route edges="23805514#0 23805514#1 -4006702#2 -4006702#1 -4006702#0 4319352#1 44069041#0 44069041#1 25472079 30405352 30350445 -33174302#1 -33174302#0 -32270595 -29900561#1 -29900561#0 -4006688#4 -4006688#3 -4006688#2 -4006688#1 -4006688#0 31401017#1 31401017#2 4006693#0 -23605595 -8403007 -29900564#1 -8402998#2 -9643180 29900561#1 32270595 33174302#0 33174302#1 4686970#0 25472257 -30357194 3998612#0 -4006725#1 -4006725#0"/>
    </vehicle>
    <vehicle id="2" depart="224.00" departSpeed="max">
        <route edges="-3013109 -3998612#2 -3998612#1 -3998612#0 30357194 25472299 30350448 30350449 25472079 30405352 30350445 -33174302#1 -33174302#0 -32270595 -29900561#1 -29900561#0 -8403001 -4006674#4 -4006674#3 -4006674#2 -4006674#1 4006674#1 4006674#2 4006674#3 4006674#4 8403001 29900561#0 29900561#1 32270595 33174302#0 33174302#1 4686970#0 4686970#1 122161381 30350448 8364476 30350450#0 30350450#1 -3998643#2 -3998615#1 3998615#1"/>
    </vehicle>
    <vehicle id="3" depart="476.00" departSpeed="max">
        <route edges="-4006725#1 4006725#1 -3998612#0 30357194 25472299 30350448 30350449 25472079 30405352 30350445 -33174302#1 -33174302#0 -32270595 -29900561#1 -29900561#0 -4006688#4 -4006688#3 -4006688#2 -4006688#1 -4006688#0 31401017#1 31401017#2 25398494#0 113939242#2 113939241 -37591481 -28269601 28269601 37591481 -113939241 113939244#0 -25398494#0 -31401017#2 -31401017#1 4006688#0 4006688#1 4006688#2 4006688#3 4006688#4 29900561#0 29900561#1 32270595 33174302#0 33174302#1 4686970#0 4686970#1 122161381 30350448 8364476 30350450#0 30350450#1 30350450#2 4006702#0 4006702#1 4900043 4900041#1 4900041#2 4900041#3 4900041#0 -4900043 -4006702#1 -4006702#0 4319352#1 44069041#0 44069041#1 25472079 30405352 30350445 -33174302#1 -33174302#0 -32270595 -29900561#1 -29900561#0 -4006688#4 -4006688#3 -4006688#2 -4006688#1 -4006688#0 -31401017#0 -29900567 -31401018"/>
    </vehicle>
    <vehicle id="4" depart="906.00" departSpeed="max">
        <route edges="4006674#0 4006674#1 4006674#2 4006674#3 4006674#4 8403001 29900561#0 29900561#1 32270595 33174302#0 33174302#1 4686970#0 4686970#1 122161381 30350448 30350449 25472079 30405352 30350445 -33174302#1 -33174302#0 -32270595 -29900561#1 -29900561#0 -8403001 -4006674#4 -4006674#3 4006684 32302591#3 32302591#4 32302591#5 33174302#0 33174302#1 4686970#0 4686970#1 122161381 30350448 8364476 30350450#0 30350450#1 30350450#2 4006702#0 28613737 94344941 94344940#0"/>
    </vehicle>
    <vehicle id="5" depart="1131.00" departSpeed="max">
        <route edges="4392769 28269601 37591481 -113939241 113939244#0 -25398494#0 -31401017#2 -31401017#1 4006688#0 4006688#1 4006688#2 4006688#3 4006688#4 -8403001 -4006674#4 -4006674#3 -4006674#2 -4006674#1 -4006674#0 -4006672 32302591#0 32302591#1 32302591#2 32302591#3 32302591#4 23605600#0 -23605600#0 32302591#5 33174302#0 33174302#1 31353573#0 31353573#1 -41973977"/>
    </vehicle>
    <vehicle id="6" depart="1356.00" departSpeed="max">
        <route edges="3998615#0 4006726#0 4006726#1 4006726#2 -3998645#0 -3998612#0 30357194 25472299 30350448 8364476 30350450#0 30350450#1 30350450#2 -3013106#2 -3013106#1 -3013107 -3013109 3013106#0 3013106#1 3013106#2 4006702#0 4006702#1 4006702#2 -28269598 -4006703#1 4006705#1 4006705#2 31720632#0 31720632#1"/>
    </vehicle>
    <vehicle id="7" depart="1545.00" departSpeed="max">
        <route edges="4797872 4797871 4006668 126606716 113939242#0 113939242#1 -25398494#0 4006693#0 -23605595 -8403007 29900564#2 -4006691 29900565#1 29900565#2 8402998#0 -8402997 32270595 33174302#0 33174302#1 4686970#0 4686970#1 122161381 30350448 8364476 30350450#0 30350450#1 30350450#2 4006702#0 31255203#0 -31255203#0 -4006702#0 4319352#1 44069041#0 44069041#1 25472079 30405352 30350445 -33174302#1 -33174302#0 -32270595 -29900561#1 -29900561#0 -4006688#4 -4006688#3 -4006688#2 -4006688#1 -4006688#0 31401017#1 31401017#2 25398494#0 113939244#1 113939242#1"/>
    </vehicle>
    <vehicle id="8" depart="1869.00" departSpeed="max">
        <route edges="-10712013 4006688#3 4006688#4 29900561#0 29900561#1 32270595 33174302#0 33174302#1 4686970#0 4686970#1 122161381 30350448 8364476 30350450#0 30350450#1 30350450#2 -3013106#2 -3013106#1 -3013107 3013107 -3013106#0 -3998612#2 -3998612#1 -3998612#0 3998613#0 3998613#1 -3998613#1 -3998613#0 3998612#0 3998612#1 3998612#2 3013106#0 3013106#1 3013106#2 4319353 4319349"/>
    </vehicle>
    <vehicle id="9" depart="2093.00" departSpeed="max">
        <route edges="23350929 4900041#2 4900041#3 4900041#0 -4900043 -4006702#1 -4006702#0 -3013106#2 -3013106#1 -3013106#0 -3998612#2 3998612#2 3013106#0 3013106#1 3013106#2 4006702#0 4006702#1 4006702#2 -23805514#1 23805514#1 -4006702#2 -4006702#1 -4006702#0 4319352#1 44069041#0 44069041#1 25472079 30405352 30350445 -33174302#1 -33174302#0 -32270595 -29900561#1 -29900561#0 -4006688#4 -4006688#3 -4006688#2 -4006688#1 -4006688#0 31401017#1 31401017#2 25398494#0 113939242#2 113939241 32320329"/>
    </vehicle>
    <vehicle id="10" depart="2372.00" departSpeed="max">
        <route edges="31241835#0 -31241816#3 31241851#0 31241851#1 31241851#2 -31255203#0 28613737 94344941 94344940#0 -94344940#0 28768072 -28613737 -4006702#0 4319352#1 44069041#0 44069041#1 4400949 31982182#0 4047241 4797872 4797871 4006668 126606716 113939242#0 113939242#1 -25398494#0 -31401017#2 -31401017#1 4006688#0 4006688#1 4006688#2 10712013"/>
    </vehicle>
    <vehicle id="11" depart="2593.00" departSpeed="max">
        <route edges="-4006740 3998613#2 -31353573#1 -31353573#0 -33174302#1 -33174302#0 -32270595 8402997 8402998#1 8402998#2 29900564#1 8403007 -8403007 -29900564#1 -8402998#2 -8402998#1 -8402997 32270595 33174302#0 33174302#1 4686970#0 4686970#1 122161381 30350448 8364476 30350450#0 30350450#1 30350450#2 4006702#0 4006702#1 4900043 4900041#1 4900041#2 4900041#3 4900041#0 -4900043 -4006702#1 -4006702#0 4319352#1 44069041#0 44069041#1 25472079 30405352 30350445 -33174302#1 -33174302#0 -32270595 -29900561#1 -29900561#0 -4006688#4 -4006688#3 -4006688#2 -4006688#1 -4006688#0 -31401017#0 -29900567 -31401018 -4047532"/>
    </vehicle>
    <vehicle id="12" depart="2918.00" departSpeed="max">
        <route edges="32282774 3998612#0 3998612#1 3998612#2 -3998612#2 -3998612#1 -3998612#0 30357194 25472299 30350448 30350449 25472079 30405352 30350445 -33174302#1 -33174302#0 -29900565#3 -29900565#2 -29900565#1 29900565#1 -29900565#1 4006691 -29900564#2 8403007 23605595 -4006693#0 25398494#0 113939242#2 113939241 32320329"/>
    </vehicle>
    <vehicle id="13" depart="3151.00" departSpeed="max">
        <route edges="4797871 4006668 126606716 113939242#0 113939242#1 -25398494#0 4006693#0 4006693#1 4006693#2 10425128#0 10425128#1 29900564#4 29900564#5 -4006690 -4006693#4 -4006693#3 -4006693#2 -4006693#1 -4006693#0 25398494#0 113939242#2 113939241 -113939241 113939244#0 -25398494#0 -31401017#2 -31401017#1 4006688#0 4006688#1 4006688#2 4006688#3 4006688#4 29900561#0 29900561#1 32270595 33174302#0 33174302#1 4686970#0 4686970#1 122161381 30350448 30350449 4047309 30751813 -35842306#1 -35842306#0 -4900741 -4900739#2 -4900739#1 -4900739#0"/>
    </vehicle>
    <vehicle id="14" depart="3429.00" departSpeed="max">
        <route edges="4319351 4319352#0 4319352#1 44069041#0 44069041#1 25472079 30405352 30350445 -33174302#1 -33174302#0 -32270595 32270595 -32270595 -29900561#1 -29900561#0 -4006688#4 -4006688#3 -4006688#2 -4006688#1 -4006688#0 -31401017#0 -29900567 -23605600#2 -23605600#1 4006674#4 8403001 29900561#0 29900561#1 32270595 33174302#0 33174302#1 4686970#0 25472257 -30357194 3998612#0 -4006725#1 -4872369 -4006724#1 -4006724#0"/>
    </vehicle>
    <vehicle id="15" depart="3644.00" departSpeed="max">
        <route edges="15259223 4006668 23339459 30405358#1 85355912 85355911#0 85355911#1 30405356 4047309 30751813 -35842306#1 -35842306#0 -31777493#1 -31777493#0 -31270441 31777493#1 35842306#0 35842306#1 4047446#0 4047446#1 25472079 30405352 19796637 122161390 -30357194 3998612#0 -4006725#1 -4872369 4006724#2 3998612#2 3013106#0 3013106#1 3013106#2 4006702#0 4006702#1 4006702#2 -28269598 -4006703#1 -4006703#0"/>
    </vehicle>
    <vehicle id="16" depart="3915.00" departSpeed="max">
        <route edges="10425128#1 -29900564#3 -29900564#2 -29900564#1 -29900564#0 -8403001 -4006674#4 -4006674#3 4006674#3 4006674#4 8403001 29900561#0 29900561#1 32270595 33174302#0 33174302#1 4686970#0 4686970#1 122161381 30350448 8364476 30350450#0 30350450#1 30350450#2 4006702#0 -4006702#0 4319352#1 44069041#0 44069041#1 25472079 30405352 30350445 -33174302#1 -33174302#0 -32270595 -29900561#1 -29900561#0 -4006688#4 -4006688#3 -4006688#2 -4006688#1 -4006688#0 31401017#1 31401017#2 25398494#0 113939242#2 113939241 -37591481 -28269601 -4392769"/>
    </vehicle>
    <vehicle id="17" depart="4208.00" departSpeed="max">
        <route edges="-4006676 32302591#4 32302591#5 -32270595 -29900561#1 -29900561#0 -4006688#4 -4006688#3 -4006688#2 -4006688#1 -4006688#0 31401017#1 31401017#2 -31401017#2 -31401017#1 4006688#0 4006688#1 4006688#2 4006688#3 4006688#4 29900561#0 29900561#1 32270595 33174302#0 33174302#1 4686970#0 4686970#1 122161381 30350448 8364476 30350450#0 -3998645#2 -3998645#1 -4006726#2 4006726#2 -4006726#2 -4006726#1 -4006726#0 -3998615#0 3013106#2 4006702#0 28613737 94344941 94344940#0 67076129"/>
    </vehicle>
    <vehicle id="18" depart="4437.00" departSpeed="max">
        <route edges="4006705#0 4006703#1 28269598 -4006702#2 -4006702#1 -4006702#0 4319352#1 44069041#0 44069041#1 25472079 30405352 30350445 -33174302#1 -33174302#0 -32270595 -29900561#1 -29900561#0 -4006688#4 -4006688#3 -4006688#2 -4006688#1 -4006688#0 31401017#1 31401017#2 25398494#0 113939242#2 113939241 -113939241 113939244#0 113939244#1 113939244#2 -126606716 23339459 30405358#1 85355912 85355911#0 85355911#1 30405356 25472079 30405352 30350445 31353573#0 4006673"/>
    </vehicle>
    <vehicle id="19" depart="4705.00" departSpeed="max">
        <route edges="4006726#0 -4006726#0 -3998615#0 3013106#2 4006702#0 31255203#0 -31241851#2 -31241851#1 -31241851#0 -31241816#1 -31241816#0 31241816#0 31241816#1 31241851#0 31241851#1 31241851#2 -31255203#0 28613737 94344941 28768072 94344941 94344940#0 94344940#2 -54105725"/>
    </vehicle>
    <vehicle id="20" depart="4835.00" departSpeed="max">
        <route edges="23350929 4900041#2 4900041#3 4900041#0 -4900043 -4006702#1 31255203#0 -31241851#2 -31241853#2 31241838#1 31241816#1 31241851#0 31241851#1 31241851#2 -31255203#0 -4006702#0 -3013106#2 -3013106#1 -3013106#0 -3998612#2 -4006724#2 4006724#2 3998643#0 4006726#1 4099270#0 4099270#1"/>
    </vehicle>
    <vehicle id="21" depart="4969.00" departSpeed="max">
        <route edges="25472079 30405352 30350445 -33174302#1 -33174302#0 -32302591#5 -32302591#4 -32302591#3 -32302591#2 -32302591#1 -32302591#0 4006672 4006674#0 4006674#1 4006674#2 4006674#3 4006674#4 8403001 29900561#0 29900561#1 32270595 33174302#0 33174302#1 4686970#0 25472257 -30357194 3998612#0 -4006725#1 -4872369 4872369 4006725#1 -3998612#0 30357194 25472299 30350448 30350449 4047309 30751813 -35842306#1 -35842306#0 -31777493#1 -31777493#0 -4047316"/>
    </vehicle>
    <vehicle id="22" depart="5217.00" departSpeed="max">
        <route edges="10573414#0 4047378 4006724#1 4872369 4006725#1 -3998612#0 3998613#0 3998613#1 3998613#2 -31353573#1 31353573#1 -3998613#2 -3998613#1 -3998613#0 3998612#0 3998612#1 -3998612#1 3998612#1 3998612#2 3013106#0 3013106#1 3013106#2 4006702#0 4006702#1 4006702#2 -23805514#1 23805514#1"/>
    </vehicle>
    <vehicle id="23" depart="5405.00" departSpeed="max">
        <route edges="30405358#0 30405358#1 85355912 85355911#0 85355911#1 30405356 4047309 30751813 4047446#0 4047446#1 25472079 30405352 30350445 -33174302#1 -33174302#0 -32270595 -29900561#1 -29900561#0 -8403001 -4006674#4 -4006674#3 -4006674#2 -4006674#1 -4006674#0 32270593 -32270593 4006674#0 4006674#1 4006674#2 4006674#3 4006674#4 8403001 29900561#0 29900561#1 32270595 33174302#0 33174302#1 4686970#0 4686970#1 122161381 30350448 8364476 30350450#0 30350450#1 30350450#2 4006702#0 4006702#1 4006702#2 -28269598 -4006703#1 4006705#1 -25210699"/>
    </vehicle>
    <vehicle id="24" depart="5710.00" departSpeed="max">
        <route edges="54105725 -94344940#2 -94344940#0 28768072 -28613737 -4006702#0 4319352#1 44069041#0 44069041#1 25472079 30405352 30350445 -33174302#1 -33174302#0 -32270595 8402997 8402998#1 8402998#2 29900564#1 29900564#2 29900564#3 -10425128#1 23341293 -8403007 -29900564#1 -8402998#2 -8402998#1 -8402997 32270595 33174302#0 33174302#1 4686970#0 4686970#1 122161381 30350448 8364476 30350450#0 30350450#1 30350450#2 -3013106#2 -3013106#1 -3013107 -3013109 3013106#0 3013106#1 3013106#2 4319352#1 44069041#0 44069041#1 25472079 30405352 30350445 -33174302#1 -33174302#0 -32270595 -29900561#1 -29900561#0 -4006688#4 -4006688#3 -4006688#2 -4006688#1 -4006688#0 -31401017#0 -29900567 -31401018 -4047532"/>
    </vehicle>
    <vehicle id="25" depart="6089.00" departSpeed="max">
        <route edges="-113939241 113939244#0 -25398494#0 4006693#0 -23605595 -8403007 29900564#2 -4006691 29900565#1 29900565#2 8402998#0 8402998#1 8402998#2 29900564#1 8403007 -8403007 -29900564#1 -8402998#2 -8402998#1 -8402997 32270595 33174302#0 33174302#1 31353573#0 31353573#1 -41973977 -32271499"/>
    </vehicle>
    <vehicle id="26" depart="6288.00" departSpeed="max">
        <route edges="-8402998#2 -8402998#1 -8402997 32270595 33174302#0 33174302#1 4686970#0 4686970#1 122161381 30350448 8364476 30350450#0 30350450#1 30350450#2 4006702#0 31255203#0 -31241851#2 -31241851#1 31241851#1 31241851#2 -31255203#0 -4006702#0 -3013106#2 3998615#0 3998615#1 3998615#2 3998615#3 -3998645#1 -3998645#0 -3998612#0 30357194 25472299 30350448 30350449 25472079 30405352 30350445 -33174302#1 -33174302#0 -32270595 -29900561#1 -29900561#0 -4006688#4 -4006688#3 -4006688#2 -4006688#1 -4006688#0 31401017#1 31401017#2 25398494#0 113939242#2 113939241 -37591481 37591481"/>
    </vehicle>
    <vehicle id="27" depart="6616.00" departSpeed="max">
        <route edges="32282774 3998612#0 -4006725#1 -4872369 -4006724#1 4006724#1 4872369 4006725#1 -3998612#0 3998613#0 3998613#1 3998613#2 -31353573#1 4006673 -32302591#4 -32302591#3 -4006684 4006674#3 4006674#4 8403001 29900561#0 29900561#1 32270595 33174302#0 33174302#1 4686970#0 4686970#1 122161381 30350448 8364476 30350450#0 30350450#1 30350450#2 4006702#0 28613737 94344941 94344940#0 -28613727#1 -28613727#0 -28613734"/>
    </vehicle>
    <vehicle id="28" depart="6870.00" departSpeed="max">
        <route edges="4006703#0 4006703#1 28269598 -4006702#2 -4006702#1 -4006702#0 4319352#1 44069041#0 44069041#1 25472079 30405352 30350445 4686970#0 4686970#1 122161381 30350448 8364476 30350450#0 30350450#1 30350450#2 4006702#0 31255203#0 -31241851#2 -31241851#1 -31241851#0 31241816#3 -31241816#3 31241851#0 31241851#1 31241851#2 -31255203#0 -4006702#0 4319352#1 44069041#0 44069041#1 25472079 30405352 30350445 -33174302#1 -33174302#0 -32270595 -29900561#1 -29900561#0 -4006688#4 -4006688#3 -4006688#2 -4006688#1 -4006688#0 31401017#1 31401017#2 25398494#0 113939242#2 113939241 -37591481 -28269601 -4392769"/>
    </vehicle>
    <vehicle id="29" depart="7202.00" departSpeed="max">
        <route edges="4900741 35842306#0 35842306#1 4047446#0 4047446#1 5931612 30350450#0 30350450#1 30350450#2 4006702#0 31255203#0 -31241851#2 -31241851#1 -31241851#0 -31241816#1 31241816#1 -31241816#1 31241816#1 31241851#0 31241851#1 31241851#2 -31255203#0 -4006702#0 4319352#1 44069041#0 44069041#1 4400949 31982182#0 31982182#1"/>
    </vehicle>
    <vehicle id="30" depart="7414.00" departSpeed="max">
        <route edges="15259223 4006668 126606716 113939242#0 113939242#1 -25398494#0 4006693#0 4006693#1 4006693#2 10425128#0 -10425128#0 -4006693#2 -10419402 -23570844#2 -5445204#3 -5445204#2 -5445204#1 113939242#1 -25398494#0 -31401017#2 -31401017#1 4006688#0 4006688#1 4006688#2 4006688#3 4006688#4 29900561#0 29900561#1 32270595 33174302#0 33174302#1 4686970#0 4686970#1 122161381 30350448 8364476 30350450#0 30350450#1 30350450#2 4006702#0 4006702#1 4006702#2 -28269598 -4006703#1 4006705#1 4006705#2 31720632#0 31720632#1"/>
    </vehicle>
    <vehicle id="31" depart="7700.00" departSpeed="max">
        <route edges="-26188722 35842306#1 4047446#0 4047446#1 5931612 30350450#0 30350450#1 30350450#2 4006702#0 31255203#0 -31241851#2 -31241851#1 31241851#1 -31241851#1 -31241851#0 -31241848 31241848 31241851#0 31241851#1 31241851#2 -31255203#0 -4006702#0 4319352#1 44069041#0 44069041#1 4400949 31982182#0 31982182#1"/>
    </vehicle>
    <vehicle id="32" depart="7933.00" departSpeed="max">
        <route edges="29900561#1 32270595 33174302#0 33174302#1 4686970#0 4686970#1 122161381 30350448 8364476 30350450#0 30350450#1 30350450#2 4006702#0 4006702#1 4900043 4900041#1 4900041#2 4900041#3 4900041#0 -4900043 -4006702#1 -4006702#0 4319352#1 44069041#0 44069041#1 25472079 30405352 30350445 -33174302#1 -33174302#0 -32270595 -29900561#1 -29900561#0 -8403001 -4006674#4 -4006674#3 -4006674#2 -4006674#1 -4006674#0 32270593 32270592#0 32270592#1 -32270592#1 32270592#1 4047532 31401018 29900567 31401017#0 31401017#1 31401017#2 25398494#0 113939242#2 113939241 -37591481 37591481"/>
    </vehicle>
    <vehicle id="33" depart="8267.00" departSpeed="max">
        <route edges="-5558 -4006693#4 -4006693#3 -4006693#2 -4006693#1 -4006693#0 25398494#0 113939244#1 113939244#2 -126606716 23339459 30405358#1 85355912 85355911#0 85355911#1 30405356 5931612 30350450#0 30350450#1 30350450#2 4006702#0 4006702#1 4900043 4900041#1 4900041#2 4900041#3 4900041#0 -4900043 -4006702#1 31255203#0 -31241851#2 -31241851#1 -31241851#0 -31241816#1 -31241816#0 -31241855#0 -31241834#1"/>
    </vehicle>
    <vehicle id="34" depart="8475.00" departSpeed="max">
        <route edges="-94344940#2 -94344940#0 28768072 -28613737 -4006702#0 -3013106#2 -3013106#1 -3013106#0 -10573414#1 4047378 4006724#1 -4006724#1 -4047378 10573414#1 3013106#0 -3013107 3013107 3013106#1 3013106#2 4006702#0 31255203#0 -31241851#2 -31241851#1 31261347"/>
    </vehicle>
    <vehicle id="35" depart="8616.00" departSpeed="max">
        <route edges="-4006674#0 4006674#0 4006674#1 4006674#2 4006674#3 4006674#4 8403001 29900561#0 29900561#1 32270595 -32270595 -29900561#1 -29900561#0 -8403001 -4006674#4 -4006674#3 4006684 32302591#3 32302591#4 32302591#5 -32270595 -29900561#1 -29900561#0 -4006688#4 -4006688#3 -4006688#2 -4006688#1 -4006688#0 31401017#1 31401017#2 25398494#0 113939244#1 113939244#2 -126606716 -4006668 -15259223"/>
    </vehicle>
    <vehicle id="36" depart="8838.00" departSpeed="max">
        <route edges="3998613#1 -3998613#1 -3998613#0 3998612#0 3998612#1 3998612#2 3013106#0 3013106#1 3013106#2 4006702#0 31255203#0 -31241851#2 -31241851#1 -31241851#0 31241851#0 31241851#1 31241851#2 -31255203#0 -4006702#0 4319352#1 44069041#0 44069041#1 25472079 30405352 30350445 -33174302#1 -33174302#0 -32270595 -29900561#1 -29900561#0 -4006688#4 -4006688#3 -4006688#2 -4006688#1 -4006688#0 -31401017#0 -29900567 -31401018 31401018 29900567 31401017#0 4006688#0 4006688#1 4006688#2 4006688#3 4006688#4 29900561#0 29900561#1 32270595 33174302#0 33174302#1 4686970#0 4686970#1 122161381 30350448 8364476 30350450#0 30350450#1 30350450#2 4006702#0 31255203#0 -31241851#2 -31241851#1 -31241851#0 -31241816#1 -31241816#0"/>
    </vehicle>
    <vehicle id="37" depart="9136.00" departSpeed="max">
        <route edges="-10712013 4006688#3 4006688#4 29900561#0 29900561#1 32270595 33174302#0 33174302#1 31353573#0 4006673 32302591#5 33174302#0 33174302#1 4686970#0 25472257 -30357194 3998612#0 3998612#1 3998612#2 -10573414#1 10573414#1 3013106#0 3013106#1 3013106#2 4006702#0 28613737 94344941 94344940#0 -28613727#1 28631632"/>
    </vehicle>
    <vehicle id="38" depart="9327.00" departSpeed="max">
        <route edges="25210699 -4006705#1 4006703#1 28269598 -4006702#2 -4006702#1 31255203#0 -31241851#2 -31241851#1 -31241851#0 31241816#3 31241835#1 31241834#0 31241848 31241851#0 31241851#1 31241851#2 -31255203#0 -4006702#0 4319352#1 44069041#0 25472134 30751813 -35842306#1 26188722"/>
    </vehicle>
    <vehicle id="39" depart="9504.00" departSpeed="max">
        <route edges="-3998612#0 30357194 25472299 30350448 30350449 4047309 30751813 -35842306#1 -35842306#0 -31777493#1 31777493#1 35842306#0 35842306#1 4047446#0 4047446#1 25472079 30405352 19796637 122161390 -30357194 3998612#0 3998612#1 -3998612#1 -3998612#0 3998613#0 3998613#1 3998613#2 -31353573#1 4006673 -32302591#4 -32302591#3 -32302591#2 -32302591#1 -32302591#0 -125685391"/>
    </vehicle>
    <vehicle id="40" depart="9723.00" departSpeed="max">
        <route edges="-3998653 -3998613#0 3998612#0 3998612#1 3998612#2 3013106#0 3013106#1 3013106#2 4006702#0 4006702#1 4006702#2 -28269598 28269598 -4006702#2 -4006702#1 31255203#0 -31241851#2 31241851#2 -31255203#0 -4006702#0 4319352#1 44069041#0 44069041#1 25472079 30405352 30350445 -33174302#1 -33174302#0 -29900565#3 -29900565#2 -29900565#1 -29900565#0 -4006690 --5558"/>
    </vehicle>
    <vehicle id="41" depart="9958.00" departSpeed="max">
        <route edges="-31720632#1 -31720632#0 -4006705#2 -4006705#1 4006703#1 28269598 -4006702#2 -4006702#1 -4006702#0 4319352#1 44069041#0 44069041#1 25472079 30405352 30350445 -33174302#1 -33174302#0 -32270595 -29900561#1 -29900561#0 -8403001 -4006674#4 -4006674#3 -4006674#2 -4006674#1 4006674#1 4006674#2 4006674#3 4006674#4 8403001 29900561#0 29900561#1 32270595 33174302#0 33174302#1 4686970#0 4686970#1 122161381 30350448 8364476 30350450#0 30350450#1 30350450#2 4006702#0 31255203#0 -31241851#2 31241851#2 -31255203#0 -4006702#0 4319352#1 44069041#0 44069041#1 25472079 30405352 30350445 -33174302#1 -33174302#0 -32270595 -29900561#1 -29900561#0 -8403001 8403001"/>
    </vehicle>
    <vehicle id="42" depart="10291.00" departSpeed="max">
        <route edges="-31241835#1 -31241816#3 31241851#0 31241851#1 31241851#2 -31255203#0 -4006702#0 -3013106#2 3998615#0 3998615#1 -3998643#1 4006726#1 4006726#2 -3998645#0 -3998612#0 30357194 25472299 30350448 30350449 25472079 30405352 30350445 -33174302#1 -33174302#0 -32270595 8402997 8402998#1 8402998#2 29900564#1 8403007 23605595 4006693#1 4006693#2 10425128#0 10425128#1 -29900564#3 -29900564#2 -29900564#1 -8402998#2 -8402998#1 -8402997 32270595 33174302#0 33174302#1 4686970#0 4686970#1 122161381 30350448 30350449 4047309 30751813 -35842306#1 -35842306#0 -4900741 -4900739#2 -4900739#1 -4900739#0"/>
    </vehicle>
    <vehicle id="43" depart="10598.00" departSpeed="max">
        <route edges="113939242#1 -25398494#0 -31401017#2 -31401017#1 4006688#0 4006688#1 4006688#2 4006688#3 4006688#4 29900561#0 29900561#1 32270595 33174302#0 33174302#1 4686970#0 4686970#1 122161381 30350448 8364476 30350450#0 30350450#1 30350450#2 4006702#0 31255203#0 -31241851#2 -31241853#2 -31241838#0 -31255203#1 -31255203#0 -4006702#0 4319352#1 44069041#0 44069041#1 25472079 30405352 30350445 -33174302#1 -33174302#0 -32270595 -29900561#1 -29900561#0 -4006688#4 -4006688#3 -4006688#2 -4006688#1 -4006688#0 -31401017#0 -29900567 -31401018 -4047532 -32270592#1 -32270592#0 -32270593 4006674#0 4006674#1 4006674#2 4006674#3 4006674#4 8403001 29900561#0 29900561#1 32270595 33174302#0 33174302#1 4686970#0 4686970#1 122161381 30350448 8364476 30350450#0 30350450#1 30350450#2 4006702#0 4006702#1 4900043 4900041#1 4900041#2 4900041#3 4900041#0"/>
    </vehicle>
    <vehicle id="44" depart="10993.00" departSpeed="max">
        <route edges="-29900565#1 4006691 -29900564#2 8403007 23605595 4006693#1 -4006693#1 -23605595 -8403007 -29900564#1 -8402998#2 -8402998#1 -8402997 32270595 33174302#0 33174302#1 4686970#0 4686970#1 122161381 30350448 30350449 4047309 30751813 -35842306#1 -35842306#0 35842306#0 35842306#1 4047446#0 4047446#1 5931612 30350450#0 30350450#1 30350450#2 -3013106#2 -3013106#1 -3013106#0"/>
    </vehicle>
    <vehicle id="45" depart="11176.00" departSpeed="max">
        <route edges="-23341293 10425128#1 -29900564#3 -29900564#2 -29900564#1 -8402998#2 -8402998#1 -8402997 32270595 33174302#0 33174302#1 4686970#0 4686970#1 122161381 30350448 8364476 30350450#0 30350450#1 30350450#2 4006702#0 31255203#0 -31241851#2 -31241851#1 -31241851#0 31241816#3 31241835#1 31241834#0 31241848 31241851#0 31241851#1 31241851#2 -31255203#0 -4006702#0 -3013106#2 3998615#0 4006726#0 4006726#1 4006726#2 -3998645#0 -3998612#0 30357194 25472299 30350448 30350449 4047309 30751813 -35842306#1 -35842306#0 -4900741 -4900739#2 4690348"/>
    </vehicle>
    <vehicle id="46" depart="11475.00" departSpeed="max">
        <route edges="4006705#0 4006703#1 28269598 -4006702#2 -4006702#1 -4006702#0 -3013106#2 3998615#0 3998615#1 3998643#2 30350450#2 -3013106#2 -3013106#1 -3013106#0 -10573414#1 4047378 4006724#1 4006724#2 3998612#2 3013106#0 3013106#1 3013106#2 4006702#0 28613737 94344941 94344940#0 -28613727#1 -28613727#0"/>
    </vehicle>
    <vehicle id="47" depart="11648.00" departSpeed="max">
        <route edges="-31401018 31401018 29900567 31401017#0 4006688#0 4006688#1 4006688#2 4006688#3 4006688#4 -8403001 8403001 -4006688#4 -4006688#3 -4006688#2 -4006688#1 -4006688#0 4006688#0 4006688#1 4006688#2 4006688#3 4006688#4 29900561#0 29900561#1 32270595 33174302#0 33174302#1 4686970#0 4686970#1 122161381 30350448 8364476 30350450#0 -3998645#2 -3998645#1 -4006726#2 -4006726#1 -4006726#0"/>
    </vehicle>
    <vehicle id="48" depart="11795.00" departSpeed="max">
        <route edges="4006705#0 4006703#1 28269598 -4006702#2 -4006702#1 -4006702#0 4319352#1 44069041#0 44069041#1 25472079 30405352 30350445 -33174302#1 -33174302#0 -32270595 -29900561#1 -29900561#0 -8403001 8403001 29900561#0 29900561#1 32270595 33174302#0 33174302#1 4686970#0 25472257 -30357194 3998612#0 -4006725#1 -4872369 4872369 4006725#1 -3998612#0 30357194 25472299 30350448 30350449 25472079 30405352 30350445 -33174302#1 -33174302#0 -32270595 -29900561#1 -29900561#0 -4006688#4 -4006688#3 -4006688#2 -4006688#1 -4006688#0 31401017#1 31401017#2 25398494#0"/>
    </vehicle>
    <vehicle id="49" depart="12099.00" departSpeed="max">
        <route edges="4900041#2 4900041#3 4900041#0 -4900043 -4006702#1 -4006702#0 4319352#1 44069041#0 44069041#1 25472079 30405352 30350445 -33174302#1 -33174302#0 -32270595 -29900561#1 -29900561#0 -8403001 -4006674#4 -4006674#3 -4006674#2 -4006674#1 -4006674#0 32270593 32270592#0 32270592#1 4047532 31401018 29900567 31401017#0 4006688#0 4006688#1 4006688#2 4006688#3 4006688#4 29900561#0 29900561#1 32270595 33174302#0 33174302#1 4686970#0 25472257 -30357194 3998612#0 -4006725#1 -4872369 4872369 -4872369 -4006724#1 -4047378 -10573414#0"/>
    </vehicle>
    <vehicle id="50" depart="12390.00" departSpeed="max">
        <route edges="4392769 28269601 37591481 -113939241 113939244#0 -25398494#0 -31401017#2 -31401017#1 4006688#0 4006688#1 4006688#2 4006688#3 4006688#4 29900561#0 29900561#1 32270595 33174302#0 33174302#1 4686970#0 4686970#1 122161381 30350448 8364476 30350450#0 -3998645#2 -3998645#1 -3998645#0 -3998612#0 30357194 25472299 30350448 30350449 4047309 30751813 4047446#0 25472129 31982182#0 4047241 4797872 4797871 4006668 23339459 30405358#1 85355912 85355911#0 25472101 30405352 19796637 122161390 -30357194 3998612#0 -4006725#1 -4872369 -4006724#1 -4047378 -10573414#0"/>
    </vehicle>
    <vehicle id="51" depart="12809.00" departSpeed="max">
        <route edges="-39539626 5445204#3 23570844#2 10419402 4006693#2 10425128#0 10425128#1 -29900564#3 -29900564#2 -29900564#1 -8402998#2 -8402998#1 -8402997 32270595 33174302#0 33174302#1 4686970#0 4686970#1 122161381 30350448 8364476 30350450#0 30350450#1 30350450#2 4006702#0 28613737 -28613737 -4006702#0 4319352#1 44069041#0 44069041#1 25472079 30405352 30350445 -33174302#1 -33174302#0 -32270595 -29900561#1 -29900561#0 -4006688#4 -4006688#3 -4006688#2 -4006688#1 -4006688#0 31401017#1 31401017#2 25398494#0 113939244#1 5445204#1 5445204#2 39539626"/>
    </vehicle>
    <vehicle id="52" depart="13114.00" departSpeed="max">
        <route edges="23360299 -5445204#1 113939242#1 -25398494#0 -31401017#2 -31401017#1 4006688#0 4006688#1 4006688#2 4006688#3 4006688#4 29900561#0 29900561#1 32270595 33174302#0 33174302#1 4686970#0 25472257 -30357194 3998612#0 -4006725#1 -4872369 -4006724#1 -4047378 10573414#1 3013106#0 3013106#1 3013106#2 4006702#0 28613737 94344941 94344940#0 -28613727#1 -28613727#0 -28613734"/>
    </vehicle>
    <vehicle id="53" depart="13339.00" departSpeed="max">
        <route edges="-26188722 35842306#1 4047446#0 4047446#1 5931612 30350450#0 30350450#1 30350450#2 4006702#0 4006702#1 4006702#2 -4006702#2 -4006702#1 31255203#0 -31255203#0 -4006702#0 4319352#1 44069041#0 44069041#1 25472079 30405352 19796637 122161381 30350448"/>
    </vehicle>
    <vehicle id="54" depart="13496.00" departSpeed="max">