[General]
cmdenv-express-mode = true
cmdenv-autoflush = true
cmdenv-performance-display = true

network = ErlangenLTE

##########################################################
#            Simulation parameters                       #
##########################################################
debug-on-errors = false
print-undisposed = false

sim-time-limit = 700s

**.sctp.**.scalar-recording = false
**.sctp.**.vector-recording = false

**.coreDebug = false
**.routingRecorder.enabled = false

*.playgroundSizeX = 3000m
*.playgroundSizeY = 3000m
*.playgroundSizeZ = 50m

##########################################################
# Annotation parameters                                  #
##########################################################
*.annotations.draw = true

##########################################################
# Obstacle parameters                                    #
##########################################################
*.obstacles.debug = false
*.obstacles.obstacles = xmldoc("config.xml", "//AnalogueModel[@type='SimpleObstacleShadowing']/obstacles")

##########################################################
#            TraCIScenarioManager parameters             #
##########################################################
#*.manager.updateInterval = 1s
#*.manager.host = "localhost"
#*.manager.port = 9999
#*.manager.autoShutdown = true
#*.manager.launchConfig = xmldoc("erlangen.launchd.xml")

##########################################################
#            VeinsManager parameters                     #
##########################################################
*.veinsManager.moduleType = "lte.corenetwork.nodes.cars.Car"
*.veinsManager.moduleName = "car"
*.veinsManager.moduleDisplayString = ""
*.veinsManager.launchConfig = xmldoc("erlangen.launchd.xml")
*.veinsManager.updateInterval = 0.1s

##########################################################
#                      Mobility                          #
##########################################################
*.car[*].mobilityType = "VeinsInetMobility"

**.deployer.positionUpdateInterval = 0.001s

##########################################################
#      IP configuration for dynamic-created UEs          #
##########################################################
# enrolled multicast groups must be set in the HostAutoConfigurator (instead of demo.xml), seperated by a single space character
*.car[*].configurator.mcastGroups = "224.0.0.10"

##########################################################
#			         channel parameters                  #
##########################################################
**.channelControl.pMax = 10W
**.channelControl.alpha = 1.0
**.channelControl.carrierFrequency = 2100e+6Hz

# PhyLayer & Feedback parameters
**.lteNic.phy.channelModel=xmldoc("config_channel.xml")
**.feedbackComputation = xmldoc("config_channel.xml")

##########################################################
#              LTE specific parameters                   #
##########################################################

# Enable dynamic association of UEs (based on best SINR)
**.dynamicCellAssociation = true

**.car[*].masterId = 1     # useless if dynamic association is disabled
**.car[*].macCellId = 1    # useless if dynamic association is disabled
**.eNodeB1.macCellId = 1
**.eNodeB1.macNodeId = 1
**.eNodeB2.macCellId = 2
**.eNodeB2.macNodeId = 2
**.eNodeB3.macCellId = 3
**.eNodeB3.macNodeId = 3
**.eNodeB4.macCellId = 4
**.eNodeB4.macNodeId = 4
**.eNodeB5.macCellId = 5
**.eNodeB5.macNodeId = 5
**.eNodeB6.macCellId = 6
**.eNodeB6.macNodeId = 6
**.eNodeB7.macCellId = 7
**.eNodeB7.macNodeId = 7
**.eNodeB8.macCellId = 8
**.eNodeB8.macNodeId = 8
**.eNodeB9.macCellId = 9
**.eNodeB9.macNodeId = 9
**.eNodeB10.macCellId = 10
**.eNodeB10.macNodeId = 10
**.eNodeB11.macCellId = 11
**.eNodeB11.macNodeId = 11
**.eNodeB12.macCellId = 12
**.eNodeB12.macNodeId = 12
**.eNodeB13.macCellId = 13
**.eNodeB13.macNodeId = 13
**.eNodeB14.macCellId = 14
**.eNodeB14.macNodeId = 14
**.eNodeB15.macCellId = 15
**.eNodeB15.macNodeId = 15
**.eNodeB16.macCellId = 16
**.eNodeB16.macNodeId = 16
**.eNodeB17.macCellId = 17
**.eNodeB17.macNodeId = 17
**.eNodeB18.macCellId = 18
**.eNodeB18.macNodeId = 18
**.eNodeB19.macCellId = 19
**.eNodeB19.macNodeId = 19
**.eNodeB20.macCellId = 20
**.eNodeB20.macNodeId = 20
**.eNodeB21.macCellId = 21
**.eNodeB21.macNodeId = 21
**.eNodeB22.macCellId = 22
**.eNodeB22.macNodeId = 22
**.eNodeB23.macCellId = 23
**.eNodeB23.macNodeId = 23
**.eNodeB24.macCellId = 24
**.eNodeB24.macNodeId = 24
**.eNodeB25.macCellId = 25
**.eNodeB25.macNodeId = 25
**.eNodeB26.macCellId = 26
**.eNodeB26.macNodeId = 26
**.eNodeB27.macCellId = 27
**.eNodeB27.macNodeId = 27
**.eNodeB28.macCellId = 28
**.eNodeB28.macNodeId = 28
**.eNodeB29.macCellId = 29
**.eNodeB29.macNodeId = 29
**.eNodeB30.macCellId = 30
**.eNodeB30.macNodeId = 30
**.eNodeB31.macCellId = 31
**.eNodeB31.macNodeId = 31
**.eNodeB32.macCellId = 32
**.eNodeB32.macNodeId = 32
**.eNodeB33.macCellId = 33
**.eNodeB33.macNodeId = 33
**.eNodeB34.macCellId = 34
**.eNodeB34.macNodeId = 34
**.eNodeB35.macCellId = 35
**.eNodeB35.macNodeId = 35
**.eNodeB36.macCellId = 36
**.eNodeB36.macNodeId = 36
**.eNodeB37.macCellId = 37
**.eNodeB37.macNodeId = 37
**.eNodeB38.macCellId = 38
**.eNodeB38.macNodeId = 38
**.eNodeB39.macCellId = 39
**.eNodeB39.macNodeId = 39
**.eNodeB40.macCellId = 40
**.eNodeB40.macNodeId = 40
**.eNodeB41.macCellId = 41
**.eNodeB41.macNodeId = 41
**.eNodeB42.macCellId = 42
**.eNodeB42.macNodeId = 42
**.eNodeB43.macCellId = 43
**.eNodeB43.macNodeId = 43
**.eNodeB44.macCellId = 44
**.eNodeB44.macNodeId = 44
**.eNodeB45.macCellId = 45
**.eNodeB45.macNodeId = 45
**.eNodeB46.macCellId = 46
**.eNodeB46.macNodeId = 46
**.eNodeB47.macCellId = 47
**.eNodeB47.macNodeId = 47
**.eNodeB48.macCellId = 48
**.eNodeB48.macNodeId = 48
**.eNodeB49.macCellId = 49
**.eNodeB49.macNodeId = 49
**.eNodeB50.macCellId = 50
**.eNodeB50.macNodeId = 50
**.eNodeB51.macCellId = 51
**.eNodeB51.macNodeId = 51
**.eNodeB52.macCellId = 52
**.eNodeB52.macNodeId = 52
**.eNodeB53.macCellId = 53
**.eNodeB53.macNodeId = 53
**.eNodeB54.macCellId = 54
**.eNodeB54.macNodeId = 54
**.eNodeB55.macCellId = 55
**.eNodeB55.macNodeId = 55
**.eNodeB56.macCellId = 56
**.eNodeB56.macNodeId = 56
**.eNodeB57.macCellId = 57
**.eNodeB57.macNodeId = 57
**.eNodeB58.macCellId = 58
**.eNodeB58.macNodeId = 58
**.eNodeB59.macCellId = 59
**.eNodeB59.macNodeId = 59
**.eNodeB60.macCellId = 60
**.eNodeB60.macNodeId = 60
**.eNodeB61.macCellId = 61
**.eNodeB61.macNodeId = 61
**.eNodeB62.macCellId = 62
**.eNodeB62.macNodeId = 62
**.eNodeB63.macCellId = 63
**.eNodeB63.macNodeId = 63
**.eNodeB64.macCellId = 64
**.eNodeB64.macNodeId = 64
**.eNodeB65.macCellId = 65
**.eNodeB65.macNodeId = 65
**.eNodeB66.macCellId = 66
**.eNodeB66.macNodeId = 66
**.eNodeBCount = 66


**.eNodeB*.mobility.constraintAreaMinX = 0m
**.eNodeB*.mobility.constraintAreaMinY = 0m
**.eNodeB*.mobility.constraintAreaMinZ = 0m
**.eNodeB*.mobility.constraintAreaMaxX = 3000m  # example value
**.eNodeB*.mobility.constraintAreaMaxY = 3000m  # example value
**.eNodeB*.mobility.constraintAreaMaxZ = 0m
**.eNodeB*.mobility.initFromDisplayString = true


#**.eNodeB1.mobility.x = 1115
#**.eNodeB1.mobility.y = 826
#**.eNodeB2.mobility.x = 1115
#**.eNodeB2.mobility.y = 890

# AMC module parameters 
**.rbAllocationType = "localized"
**.feedbackType = "ALLBANDS"
**.feedbackGeneratorType = "IDEAL"
**.maxHarqRtx = 3
**.numUe = 250

# RUs
**.deployer.ruRange = 50
**.deployer.ruTxPower = "50,50,50;"
**.deployer.antennaCws = "2;" # !!MACRO + RUS (numRus + 1)
**.deployer.numRbDl = 25
**.deployer.numRbUl = 25
**.numBands = 25
**.fbDelay = 1

# Enable handover
**.enableHandover = true
**.broadcastMessageInterval = 1s

# X2 and SCTP configuration
# one x2App per peering eNodeB
#x2AppsPerNode
*.eNodeB1.numX2Apps = 29
*.eNodeB2.numX2Apps = 50
*.eNodeB3.numX2Apps = 28
*.eNodeB4.numX2Apps = 21
*.eNodeB5.numX2Apps = 53
*.eNodeB6.numX2Apps = 35
*.eNodeB7.numX2Apps = 40
*.eNodeB8.numX2Apps = 42
*.eNodeB9.numX2Apps = 49
*.eNodeB10.numX2Apps = 38
*.eNodeB11.numX2Apps = 25
*.eNodeB12.numX2Apps = 21
*.eNodeB13.numX2Apps = 39
*.eNodeB14.numX2Apps = 36
*.eNodeB15.numX2Apps = 27
*.eNodeB16.numX2Apps = 10
*.eNodeB17.numX2Apps = 25
*.eNodeB18.numX2Apps = 39
*.eNodeB19.numX2Apps = 42
*.eNodeB20.numX2Apps = 24
*.eNodeB21.numX2Apps = 6
*.eNodeB22.numX2Apps = 29
*.eNodeB23.numX2Apps = 17
*.eNodeB24.numX2Apps = 22
*.eNodeB25.numX2Apps = 44
*.eNodeB26.numX2Apps = 9
*.eNodeB27.numX2Apps = 45
*.eNodeB28.numX2Apps = 26
*.eNodeB29.numX2Apps = 40
*.eNodeB30.numX2Apps = 35
*.eNodeB31.numX2Apps = 42
*.eNodeB32.numX2Apps = 35
*.eNodeB33.numX2Apps = 31
*.eNodeB34.numX2Apps = 47
*.eNodeB35.numX2Apps = 45
*.eNodeB36.numX2Apps = 13
*.eNodeB37.numX2Apps = 32
*.eNodeB38.numX2Apps = 20
*.eNodeB39.numX2Apps = 15
*.eNodeB40.numX2Apps = 32
*.eNodeB41.numX2Apps = 34
*.eNodeB42.numX2Apps = 27
*.eNodeB43.numX2Apps = 26
*.eNodeB44.numX2Apps = 24
*.eNodeB45.numX2Apps = 37
*.eNodeB46.numX2Apps = 36
*.eNodeB47.numX2Apps = 42
*.eNodeB48.numX2Apps = 39
*.eNodeB49.numX2Apps = 27
*.eNodeB50.numX2Apps = 31
*.eNodeB51.numX2Apps = 34
*.eNodeB52.numX2Apps = 44
*.eNodeB53.numX2Apps = 48
*.eNodeB54.numX2Apps = 32
*.eNodeB55.numX2Apps = 27
*.eNodeB56.numX2Apps = 20
*.eNodeB57.numX2Apps = 35
*.eNodeB58.numX2Apps = 42
*.eNodeB59.numX2Apps = 22
*.eNodeB60.numX2Apps = 27
*.eNodeB61.numX2Apps = 10
*.eNodeB62.numX2Apps = 24
*.eNodeB63.numX2Apps = 40
*.eNodeB64.numX2Apps = 29
*.eNodeB65.numX2Apps = 26
*.eNodeB66.numX2Apps = 37

*.eNodeB*.x2App[*].server.localPort = 5000 + ancestorIndex(1) # Server ports (x2App[0]=5000, x2App[1]=5001, ...)

#X2 Clients
*.eNodeB1.x2App[0].client.connectAddress = "eNodeB22%x2ppp0"
*.eNodeB1.x2App[1].client.connectAddress = "eNodeB41%x2ppp0"
*.eNodeB1.x2App[2].client.connectAddress = "eNodeB50%x2ppp0"
*.eNodeB1.x2App[3].client.connectAddress = "eNodeB5%x2ppp0"
*.eNodeB1.x2App[4].client.connectAddress = "eNodeB6%x2ppp0"
*.eNodeB1.x2App[5].client.connectAddress = "eNodeB9%x2ppp0"
*.eNodeB1.x2App[6].client.connectAddress = "eNodeB11%x2ppp0"
*.eNodeB1.x2App[7].client.connectAddress = "eNodeB14%x2ppp0"
*.eNodeB1.x2App[8].client.connectAddress = "eNodeB18%x2ppp0"
*.eNodeB1.x2App[9].client.connectAddress = "eNodeB19%x2ppp0"
*.eNodeB1.x2App[10].client.connectAddress = "eNodeB25%x2ppp0"
*.eNodeB1.x2App[11].client.connectAddress = "eNodeB27%x2ppp0"
*.eNodeB1.x2App[12].client.connectAddress = "eNodeB29%x2ppp0"
*.eNodeB1.x2App[13].client.connectAddress = "eNodeB31%x2ppp0"
*.eNodeB1.x2App[14].client.connectAddress = "eNodeB33%x2ppp0"
*.eNodeB1.x2App[15].client.connectAddress = "eNodeB34%x2ppp0"
*.eNodeB1.x2App[16].client.connectAddress = "eNodeB35%x2ppp0"
*.eNodeB1.x2App[17].client.connectAddress = "eNodeB37%x2ppp0"
*.eNodeB1.x2App[18].client.connectAddress = "eNodeB40%x2ppp0"
*.eNodeB1.x2App[19].client.connectAddress = "eNodeB42%x2ppp0"
*.eNodeB1.x2App[20].client.connectAddress = "eNodeB43%x2ppp0"
*.eNodeB1.x2App[21].client.connectAddress = "eNodeB45%x2ppp0"
*.eNodeB1.x2App[22].client.connectAddress = "eNodeB48%x2ppp0"
*.eNodeB1.x2App[23].client.connectAddress = "eNodeB51%x2ppp0"
*.eNodeB1.x2App[24].client.connectAddress = "eNodeB52%x2ppp0"
*.eNodeB1.x2App[25].client.connectAddress = "eNodeB53%x2ppp0"
*.eNodeB1.x2App[26].client.connectAddress = "eNodeB54%x2ppp0"
*.eNodeB1.x2App[27].client.connectAddress = "eNodeB58%x2ppp0"
*.eNodeB1.x2App[28].client.connectAddress = "eNodeB66%x2ppp0"
*.eNodeB2.x2App[0].client.connectAddress = "eNodeB5%x2ppp1"
*.eNodeB2.x2App[1].client.connectAddress = "eNodeB7%x2ppp0"
*.eNodeB2.x2App[2].client.connectAddress = "eNodeB32%x2ppp0"
*.eNodeB2.x2App[3].client.connectAddress = "eNodeB3%x2ppp0"
*.eNodeB2.x2App[4].client.connectAddress = "eNodeB4%x2ppp0"
*.eNodeB2.x2App[5].client.connectAddress = "eNodeB6%x2ppp1"
*.eNodeB2.x2App[6].client.connectAddress = "eNodeB8%x2ppp0"
*.eNodeB2.x2App[7].client.connectAddress = "eNodeB9%x2ppp1"
*.eNodeB2.x2App[8].client.connectAddress = "eNodeB10%x2ppp0"
*.eNodeB2.x2App[9].client.connectAddress = "eNodeB12%x2ppp0"
*.eNodeB2.x2App[10].client.connectAddress = "eNodeB13%x2ppp0"
*.eNodeB2.x2App[11].client.connectAddress = "eNodeB14%x2ppp1"
*.eNodeB2.x2App[12].client.connectAddress = "eNodeB15%x2ppp0"
*.eNodeB2.x2App[13].client.connectAddress = "eNodeB17%x2ppp0"
*.eNodeB2.x2App[14].client.connectAddress = "eNodeB18%x2ppp1"
*.eNodeB2.x2App[15].client.connectAddress = "eNodeB19%x2ppp1"
*.eNodeB2.x2App[16].client.connectAddress = "eNodeB20%x2ppp0"
*.eNodeB2.x2App[17].client.connectAddress = "eNodeB23%x2ppp0"
*.eNodeB2.x2App[18].client.connectAddress = "eNodeB25%x2ppp1"
*.eNodeB2.x2App[19].client.connectAddress = "eNodeB27%x2ppp1"
*.eNodeB2.x2App[20].client.connectAddress = "eNodeB28%x2ppp0"
*.eNodeB2.x2App[21].client.connectAddress = "eNodeB29%x2ppp1"
*.eNodeB2.x2App[22].client.connectAddress = "eNodeB30%x2ppp0"
*.eNodeB2.x2App[23].client.connectAddress = "eNodeB31%x2ppp1"
*.eNodeB2.x2App[24].client.connectAddress = "eNodeB33%x2ppp1"
*.eNodeB2.x2App[25].client.connectAddress = "eNodeB34%x2ppp1"
*.eNodeB2.x2App[26].client.connectAddress = "eNodeB35%x2ppp1"
*.eNodeB2.x2App[27].client.connectAddress = "eNodeB36%x2ppp0"
*.eNodeB2.x2App[28].client.connectAddress = "eNodeB37%x2ppp1"
*.eNodeB2.x2App[29].client.connectAddress = "eNodeB38%x2ppp0"
*.eNodeB2.x2App[30].client.connectAddress = "eNodeB41%x2ppp1"
*.eNodeB2.x2App[31].client.connectAddress = "eNodeB44%x2ppp0"
*.eNodeB2.x2App[32].client.connectAddress = "eNodeB45%x2ppp1"
*.eNodeB2.x2App[33].client.connectAddress = "eNodeB46%x2ppp0"
*.eNodeB2.x2App[34].client.connectAddress = "eNodeB47%x2ppp0"
*.eNodeB2.x2App[35].client.connectAddress = "eNodeB48%x2ppp1"
*.eNodeB2.x2App[36].client.connectAddress = "eNodeB49%x2ppp0"
*.eNodeB2.x2App[37].client.connectAddress = "eNodeB50%x2ppp1"
*.eNodeB2.x2App[38].client.connectAddress = "eNodeB51%x2ppp1"
*.eNodeB2.x2App[39].client.connectAddress = "eNodeB52%x2ppp1"
*.eNodeB2.x2App[40].client.connectAddress = "eNodeB53%x2ppp1"
*.eNodeB2.x2App[41].client.connectAddress = "eNodeB55%x2ppp0"
*.eNodeB2.x2App[42].client.connectAddress = "eNodeB57%x2ppp0"
*.eNodeB2.x2App[43].client.connectAddress = "eNodeB58%x2ppp1"
*.eNodeB2.x2App[44].client.connectAddress = "eNodeB60%x2ppp0"
*.eNodeB2.x2App[45].client.connectAddress = "eNodeB62%x2ppp0"
*.eNodeB2.x2App[46].client.connectAddress = "eNodeB63%x2ppp0"
*.eNodeB2.x2App[47].client.connectAddress = "eNodeB64%x2ppp0"
*.eNodeB2.x2App[48].client.connectAddress = "eNodeB65%x2ppp0"
*.eNodeB2.x2App[49].client.connectAddress = "eNodeB66%x2ppp1"
*.eNodeB3.x2App[0].client.connectAddress = "eNodeB2%x2ppp0"
*.eNodeB3.x2App[1].client.connectAddress = "eNodeB12%x2ppp1"
*.eNodeB3.x2App[2].client.connectAddress = "eNodeB46%x2ppp1"
*.eNodeB3.x2App[3].client.connectAddress = "eNodeB62%x2ppp1"
*.eNodeB3.x2App[4].client.connectAddress = "eNodeB4%x2ppp1"
*.eNodeB3.x2App[5].client.connectAddress = "eNodeB5%x2ppp2"
*.eNodeB3.x2App[6].client.connectAddress = "eNodeB7%x2ppp1"
*.eNodeB3.x2App[7].client.connectAddress = "eNodeB8%x2ppp1"
*.eNodeB3.x2App[8].client.connectAddress = "eNodeB9%x2ppp2"
*.eNodeB3.x2App[9].client.connectAddress = "eNodeB10%x2ppp1"
*.eNodeB3.x2App[10].client.connectAddress = "eNodeB13%x2ppp1"
*.eNodeB3.x2App[11].client.connectAddress = "eNodeB17%x2ppp1"
*.eNodeB3.x2App[12].client.connectAddress = "eNodeB20%x2ppp1"
*.eNodeB3.x2App[13].client.connectAddress = "eNodeB23%x2ppp1"
*.eNodeB3.x2App[14].client.connectAddress = "eNodeB25%x2ppp2"
*.eNodeB3.x2App[15].client.connectAddress = "eNodeB29%x2ppp2"
*.eNodeB3.x2App[16].client.connectAddress = "eNodeB30%x2ppp1"
*.eNodeB3.x2App[17].client.connectAddress = "eNodeB32%x2ppp1"
*.eNodeB3.x2App[18].client.connectAddress = "eNodeB34%x2ppp2"
*.eNodeB3.x2App[19].client.connectAddress = "eNodeB36%x2ppp1"
*.eNodeB3.x2App[20].client.connectAddress = "eNodeB38%x2ppp1"
*.eNodeB3.x2App[21].client.connectAddress = "eNodeB44%x2ppp1"
*.eNodeB3.x2App[22].client.connectAddress = "eNodeB47%x2ppp1"
*.eNodeB3.x2App[23].client.connectAddress = "eNodeB49%x2ppp1"
*.eNodeB3.x2App[24].client.connectAddress = "eNodeB51%x2ppp2"
*.eNodeB3.x2App[25].client.connectAddress = "eNodeB52%x2ppp2"
*.eNodeB3.x2App[26].client.connectAddress = "eNodeB53%x2ppp2"
*.eNodeB3.x2App[27].client.connectAddress = "eNodeB55%x2ppp1"
*.eNodeB4.x2App[0].client.connectAddress = "eNodeB2%x2ppp1"
*.eNodeB4.x2App[1].client.connectAddress = "eNodeB3%x2ppp1"
*.eNodeB4.x2App[2].client.connectAddress = "eNodeB17%x2ppp2"
*.eNodeB4.x2App[3].client.connectAddress = "eNodeB20%x2ppp2"
*.eNodeB4.x2App[4].client.connectAddress = "eNodeB49%x2ppp2"
*.eNodeB4.x2App[5].client.connectAddress = "eNodeB5%x2ppp3"
*.eNodeB4.x2App[6].client.connectAddress = "eNodeB6%x2ppp2"
*.eNodeB4.x2App[7].client.connectAddress = "eNodeB12%x2ppp2"
*.eNodeB4.x2App[8].client.connectAddress = "eNodeB25%x2ppp3"
*.eNodeB4.x2App[9].client.connectAddress = "eNodeB29%x2ppp3"
*.eNodeB4.x2App[10].client.connectAddress = "eNodeB30%x2ppp2"
*.eNodeB4.x2App[11].client.connectAddress = "eNodeB32%x2ppp2"
*.eNodeB4.x2App[12].client.connectAddress = "eNodeB33%x2ppp2"
*.eNodeB4.x2App[13].client.connectAddress = "eNodeB34%x2ppp3"
*.eNodeB4.x2App[14].client.connectAddress = "eNodeB46%x2ppp2"
*.eNodeB4.x2App[15].client.connectAddress = "eNodeB51%x2ppp3"
*.eNodeB4.x2App[16].client.connectAddress = "eNodeB52%x2ppp3"
*.eNodeB4.x2App[17].client.connectAddress = "eNodeB53%x2ppp3"
*.eNodeB4.x2App[18].client.connectAddress = "eNodeB55%x2ppp2"
*.eNodeB4.x2App[19].client.connectAddress = "eNodeB56%x2ppp0"
*.eNodeB4.x2App[20].client.connectAddress = "eNodeB62%x2ppp2"
*.eNodeB5.x2App[0].client.connectAddress = "eNodeB1%x2ppp0"
*.eNodeB5.x2App[1].client.connectAddress = "eNodeB2%x2ppp2"
*.eNodeB5.x2App[2].client.connectAddress = "eNodeB3%x2ppp2"
*.eNodeB5.x2App[3].client.connectAddress = "eNodeB4%x2ppp2"
*.eNodeB5.x2App[4].client.connectAddress = "eNodeB25%x2ppp4"
*.eNodeB5.x2App[5].client.connectAddress = "eNodeB34%x2ppp4"
*.eNodeB5.x2App[6].client.connectAddress = "eNodeB6%x2ppp3"
*.eNodeB5.x2App[7].client.connectAddress = "eNodeB7%x2ppp2"
*.eNodeB5.x2App[8].client.connectAddress = "eNodeB8%x2ppp2"
*.eNodeB5.x2App[9].client.connectAddress = "eNodeB9%x2ppp3"
*.eNodeB5.x2App[10].client.connectAddress = "eNodeB10%x2ppp2"
*.eNodeB5.x2App[11].client.connectAddress = "eNodeB12%x2ppp3"
*.eNodeB5.x2App[12].client.connectAddress = "eNodeB13%x2ppp2"
*.eNodeB5.x2App[13].client.connectAddress = "eNodeB14%x2ppp2"
*.eNodeB5.x2App[14].client.connectAddress = "eNodeB15%x2ppp1"
*.eNodeB5.x2App[15].client.connectAddress = "eNodeB17%x2ppp3"
*.eNodeB5.x2App[16].client.connectAddress = "eNodeB18%x2ppp2"
*.eNodeB5.x2App[17].client.connectAddress = "eNodeB19%x2ppp2"
*.eNodeB5.x2App[18].client.connectAddress = "eNodeB20%x2ppp3"
*.eNodeB5.x2App[19].client.connectAddress = "eNodeB22%x2ppp1"
*.eNodeB5.x2App[20].client.connectAddress = "eNodeB27%x2ppp2"
*.eNodeB5.x2App[21].client.connectAddress = "eNodeB28%x2ppp1"
*.eNodeB5.x2App[22].client.connectAddress = "eNodeB29%x2ppp4"
*.eNodeB5.x2App[23].client.connectAddress = "eNodeB30%x2ppp3"
*.eNodeB5.x2App[24].client.connectAddress = "eNodeB31%x2ppp2"
*.eNodeB5.x2App[25].client.connectAddress = "eNodeB32%x2ppp3"
*.eNodeB5.x2App[26].client.connectAddress = "eNodeB33%x2ppp3"
*.eNodeB5.x2App[27].client.connectAddress = "eNodeB35%x2ppp2"
*.eNodeB5.x2App[28].client.connectAddress = "eNodeB37%x2ppp2"
*.eNodeB5.x2App[29].client.connectAddress = "eNodeB38%x2ppp2"
*.eNodeB5.x2App[30].client.connectAddress = "eNodeB40%x2ppp1"
*.eNodeB5.x2App[31].client.connectAddress = "eNodeB41%x2ppp2"
*.eNodeB5.x2App[32].client.connectAddress = "eNodeB42%x2ppp1"
*.eNodeB5.x2App[33].client.connectAddress = "eNodeB44%x2ppp2"
*.eNodeB5.x2App[34].client.connectAddress = "eNodeB45%x2ppp2"
*.eNodeB5.x2App[35].client.connectAddress = "eNodeB46%x2ppp3"
*.eNodeB5.x2App[36].client.connectAddress = "eNodeB47%x2ppp2"
*.eNodeB5.x2App[37].client.connectAddress = "eNodeB48%x2ppp2"
*.eNodeB5.x2App[38].client.connectAddress = "eNodeB49%x2ppp3"
*.eNodeB5.x2App[39].client.connectAddress = "eNodeB50%x2ppp2"
*.eNodeB5.x2App[40].client.connectAddress = "eNodeB51%x2ppp4"
*.eNodeB5.x2App[41].client.connectAddress = "eNodeB52%x2ppp4"
*.eNodeB5.x2App[42].client.connectAddress = "eNodeB53%x2ppp4"
*.eNodeB5.x2App[43].client.connectAddress = "eNodeB54%x2ppp1"
*.eNodeB5.x2App[44].client.connectAddress = "eNodeB55%x2ppp3"
*.eNodeB5.x2App[45].client.connectAddress = "eNodeB56%x2ppp1"
*.eNodeB5.x2App[46].client.connectAddress = "eNodeB57%x2ppp1"
*.eNodeB5.x2App[47].client.connectAddress = "eNodeB58%x2ppp2"
*.eNodeB5.x2App[48].client.connectAddress = "eNodeB60%x2ppp1"
*.eNodeB5.x2App[49].client.connectAddress = "eNodeB62%x2ppp3"
*.eNodeB5.x2App[50].client.connectAddress = "eNodeB63%x2ppp1"
*.eNodeB5.x2App[51].client.connectAddress = "eNodeB64%x2ppp1"
*.eNodeB5.x2App[52].client.connectAddress = "eNodeB66%x2ppp2"
*.eNodeB6.x2App[0].client.connectAddress = "eNodeB1%x2ppp1"
*.eNodeB6.x2App[1].client.connectAddress = "eNodeB2%x2ppp3"
*.eNodeB6.x2App[2].client.connectAddress = "eNodeB4%x2ppp3"
*.eNodeB6.x2App[3].client.connectAddress = "eNodeB5%x2ppp4"
*.eNodeB6.x2App[4].client.connectAddress = "eNodeB37%x2ppp3"
*.eNodeB6.x2App[5].client.connectAddress = "eNodeB45%x2ppp3"
*.eNodeB6.x2App[6].client.connectAddress = "eNodeB50%x2ppp3"
*.eNodeB6.x2App[7].client.connectAddress = "eNodeB9%x2ppp4"
*.eNodeB6.x2App[8].client.connectAddress = "eNodeB11%x2ppp1"
*.eNodeB6.x2App[9].client.connectAddress = "eNodeB14%x2ppp3"
*.eNodeB6.x2App[10].client.connectAddress = "eNodeB17%x2ppp4"
*.eNodeB6.x2App[11].client.connectAddress = "eNodeB18%x2ppp3"
*.eNodeB6.x2App[12].client.connectAddress = "eNodeB19%x2ppp3"
*.eNodeB6.x2App[13].client.connectAddress = "eNodeB20%x2ppp4"
*.eNodeB6.x2App[14].client.connectAddress = "eNodeB22%x2ppp2"
*.eNodeB6.x2App[15].client.connectAddress = "eNodeB25%x2ppp5"
*.eNodeB6.x2App[16].client.connectAddress = "eNodeB27%x2ppp3"
*.eNodeB6.x2App[17].client.connectAddress = "eNodeB29%x2ppp5"
*.eNodeB6.x2App[18].client.connectAddress = "eNodeB31%x2ppp3"
*.eNodeB6.x2App[19].client.connectAddress = "eNodeB33%x2ppp4"
*.eNodeB6.x2App[20].client.connectAddress = "eNodeB34%x2ppp5"
*.eNodeB6.x2App[21].client.connectAddress = "eNodeB35%x2ppp3"
*.eNodeB6.x2App[22].client.connectAddress = "eNodeB40%x2ppp2"
*.eNodeB6.x2App[23].client.connectAddress = "eNodeB41%x2ppp3"
*.eNodeB6.x2App[24].client.connectAddress = "eNodeB42%x2ppp2"
*.eNodeB6.x2App[25].client.connectAddress = "eNodeB43%x2ppp1"
*.eNodeB6.x2App[26].client.connectAddress = "eNodeB48%x2ppp3"
*.eNodeB6.x2App[27].client.connectAddress = "eNodeB49%x2ppp4"
*.eNodeB6.x2App[28].client.connectAddress = "eNodeB51%x2ppp5"
*.eNodeB6.x2App[29].client.connectAddress = "eNodeB52%x2ppp5"
*.eNodeB6.x2App[30].client.connectAddress = "eNodeB53%x2ppp5"
*.eNodeB6.x2App[31].client.connectAddress = "eNodeB54%x2ppp2"
*.eNodeB6.x2App[32].client.connectAddress = "eNodeB56%x2ppp2"
*.eNodeB6.x2App[33].client.connectAddress = "eNodeB58%x2ppp3"
*.eNodeB6.x2App[34].client.connectAddress = "eNodeB66%x2ppp3"
*.eNodeB7.x2App[0].client.connectAddress = "eNodeB2%x2ppp4"
*.eNodeB7.x2App[1].client.connectAddress = "eNodeB3%x2ppp3"
*.eNodeB7.x2App[2].client.connectAddress = "eNodeB5%x2ppp5"
*.eNodeB7.x2App[3].client.connectAddress = "eNodeB8%x2ppp3"
*.eNodeB7.x2App[4].client.connectAddress = "eNodeB47%x2ppp3"
*.eNodeB7.x2App[5].client.connectAddress = "eNodeB9%x2ppp5"
*.eNodeB7.x2App[6].client.connectAddress = "eNodeB10%x2ppp3"
*.eNodeB7.x2App[7].client.connectAddress = "eNodeB12%x2ppp4"
*.eNodeB7.x2App[8].client.connectAddress = "eNodeB13%x2ppp3"
*.eNodeB7.x2App[9].client.connectAddress = "eNodeB15%x2ppp2"
*.eNodeB7.x2App[10].client.connectAddress = "eNodeB18%x2ppp4"
*.eNodeB7.x2App[11].client.connectAddress = "eNodeB19%x2ppp4"
*.eNodeB7.x2App[12].client.connectAddress = "eNodeB23%x2ppp2"
*.eNodeB7.x2App[13].client.connectAddress = "eNodeB24%x2ppp0"
*.eNodeB7.x2App[14].client.connectAddress = "eNodeB25%x2ppp6"
*.eNodeB7.x2App[15].client.connectAddress = "eNodeB27%x2ppp4"
*.eNodeB7.x2App[16].client.connectAddress = "eNodeB28%x2ppp2"
*.eNodeB7.x2App[17].client.connectAddress = "eNodeB29%x2ppp6"
*.eNodeB7.x2App[18].client.connectAddress = "eNodeB30%x2ppp4"
*.eNodeB7.x2App[19].client.connectAddress = "eNodeB31%x2ppp4"
*.eNodeB7.x2App[20].client.connectAddress = "eNodeB32%x2ppp4"
*.eNodeB7.x2App[21].client.connectAddress = "eNodeB34%x2ppp6"
*.eNodeB7.x2App[22].client.connectAddress = "eNodeB35%x2ppp4"
*.eNodeB7.x2App[23].client.connectAddress = "eNodeB36%x2ppp2"
*.eNodeB7.x2App[24].client.connectAddress = "eNodeB38%x2ppp3"
*.eNodeB7.x2App[25].client.connectAddress = "eNodeB44%x2ppp3"
*.eNodeB7.x2App[26].client.connectAddress = "eNodeB46%x2ppp4"
*.eNodeB7.x2App[27].client.connectAddress = "eNodeB48%x2ppp4"
*.eNodeB7.x2App[28].client.connectAddress = "eNodeB52%x2ppp6"
*.eNodeB7.x2App[29].client.connectAddress = "eNodeB53%x2ppp6"
*.eNodeB7.x2App[30].client.connectAddress = "eNodeB55%x2ppp4"
*.eNodeB7.x2App[31].client.connectAddress = "eNodeB57%x2ppp2"
*.eNodeB7.x2App[32].client.connectAddress = "eNodeB58%x2ppp4"
*.eNodeB7.x2App[33].client.connectAddress = "eNodeB59%x2ppp0"
*.eNodeB7.x2App[34].client.connectAddress = "eNodeB60%x2ppp2"
*.eNodeB7.x2App[35].client.connectAddress = "eNodeB62%x2ppp4"
*.eNodeB7.x2App[36].client.connectAddress = "eNodeB63%x2ppp2"
*.eNodeB7.x2App[37].client.connectAddress = "eNodeB64%x2ppp2"
*.eNodeB7.x2App[38].client.connectAddress = "eNodeB65%x2ppp1"
*.eNodeB7.x2App[39].client.connectAddress = "eNodeB66%x2ppp4"
*.eNodeB8.x2App[0].client.connectAddress = "eNodeB2%x2ppp5"
*.eNodeB8.x2App[1].client.connectAddress = "eNodeB3%x2ppp4"
*.eNodeB8.x2App[2].client.connectAddress = "eNodeB5%x2ppp6"
*.eNodeB8.x2App[3].client.connectAddress = "eNodeB7%x2ppp3"
*.eNodeB8.x2App[4].client.connectAddress = "eNodeB13%x2ppp4"
*.eNodeB8.x2App[5].client.connectAddress = "eNodeB31%x2ppp5"
*.eNodeB8.x2App[6].client.connectAddress = "eNodeB47%x2ppp4"
*.eNodeB8.x2App[7].client.connectAddress = "eNodeB9%x2ppp6"
*.eNodeB8.x2App[8].client.connectAddress = "eNodeB10%x2ppp4"
*.eNodeB8.x2App[9].client.connectAddress = "eNodeB14%x2ppp4"
*.eNodeB8.x2App[10].client.connectAddress = "eNodeB15%x2ppp3"
*.eNodeB8.x2App[11].client.connectAddress = "eNodeB18%x2ppp5"
*.eNodeB8.x2App[12].client.connectAddress = "eNodeB19%x2ppp5"
*.eNodeB8.x2App[13].client.connectAddress = "eNodeB23%x2ppp3"
*.eNodeB8.x2App[14].client.connectAddress = "eNodeB24%x2ppp1"
*.eNodeB8.x2App[15].client.connectAddress = "eNodeB25%x2ppp7"
*.eNodeB8.x2App[16].client.connectAddress = "eNodeB27%x2ppp5"
*.eNodeB8.x2App[17].client.connectAddress = "eNodeB28%x2ppp3"
*.eNodeB8.x2App[18].client.connectAddress = "eNodeB29%x2ppp7"
*.eNodeB8.x2App[19].client.connectAddress = "eNodeB30%x2ppp5"
*.eNodeB8.x2App[20].client.connectAddress = "eNodeB32%x2ppp5"
*.eNodeB8.x2App[21].client.connectAddress = "eNodeB34%x2ppp7"
*.eNodeB8.x2App[22].client.connectAddress = "eNodeB35%x2ppp5"
*.eNodeB8.x2App[23].client.connectAddress = "eNodeB38%x2ppp4"
*.eNodeB8.x2App[24].client.connectAddress = "eNodeB40%x2ppp3"
*.eNodeB8.x2App[25].client.connectAddress = "eNodeB41%x2ppp4"
*.eNodeB8.x2App[26].client.connectAddress = "eNodeB44%x2ppp4"
*.eNodeB8.x2App[27].client.connectAddress = "eNodeB45%x2ppp4"
*.eNodeB8.x2App[28].client.connectAddress = "eNodeB46%x2ppp5"
*.eNodeB8.x2App[29].client.connectAddress = "eNodeB48%x2ppp5"
*.eNodeB8.x2App[30].client.connectAddress = "eNodeB52%x2ppp7"
*.eNodeB8.x2App[31].client.connectAddress = "eNodeB53%x2ppp7"
*.eNodeB8.x2App[32].client.connectAddress = "eNodeB54%x2ppp3"
*.eNodeB8.x2App[33].client.connectAddress = "eNodeB57%x2ppp3"
*.eNodeB8.x2App[34].client.connectAddress = "eNodeB58%x2ppp5"
*.eNodeB8.x2App[35].client.connectAddress = "eNodeB59%x2ppp1"
*.eNodeB8.x2App[36].client.connectAddress = "eNodeB60%x2ppp3"
*.eNodeB8.x2App[37].client.connectAddress = "eNodeB62%x2ppp5"
*.eNodeB8.x2App[38].client.connectAddress = "eNodeB63%x2ppp3"
*.eNodeB8.x2App[39].client.connectAddress = "eNodeB64%x2ppp3"
*.eNodeB8.x2App[40].client.connectAddress = "eNodeB65%x2ppp2"
*.eNodeB8.x2App[41].client.connectAddress = "eNodeB66%x2ppp5"
*.eNodeB9.x2App[0].client.connectAddress = "eNodeB1%x2ppp2"
*.eNodeB9.x2App[1].client.connectAddress = "eNodeB2%x2ppp6"
*.eNodeB9.x2App[2].client.connectAddress = "eNodeB3%x2ppp5"
*.eNodeB9.x2App[3].client.connectAddress = "eNodeB5%x2ppp7"
*.eNodeB9.x2App[4].client.connectAddress = "eNodeB6%x2ppp4"
*.eNodeB9.x2App[5].client.connectAddress = "eNodeB7%x2ppp4"
*.eNodeB9.x2App[6].client.connectAddress = "eNodeB8%x2ppp4"
*.eNodeB9.x2App[7].client.connectAddress = "eNodeB27%x2ppp6"
*.eNodeB9.x2App[8].client.connectAddress = "eNodeB34%x2ppp8"
*.eNodeB9.x2App[9].client.connectAddress = "eNodeB58%x2ppp6"
*.eNodeB9.x2App[10].client.connectAddress = "eNodeB10%x2ppp5"
*.eNodeB9.x2App[11].client.connectAddress = "eNodeB11%x2ppp2"
*.eNodeB9.x2App[12].client.connectAddress = "eNodeB13%x2ppp5"
*.eNodeB9.x2App[13].client.connectAddress = "eNodeB14%x2ppp5"
*.eNodeB9.x2App[14].client.connectAddress = "eNodeB17%x2ppp5"
*.eNodeB9.x2App[15].client.connectAddress = "eNodeB18%x2ppp6"
*.eNodeB9.x2App[16].client.connectAddress = "eNodeB19%x2ppp6"
*.eNodeB9.x2App[17].client.connectAddress = "eNodeB20%x2ppp5"
*.eNodeB9.x2App[18].client.connectAddress = "eNodeB22%x2ppp3"
*.eNodeB9.x2App[19].client.connectAddress = "eNodeB25%x2ppp8"
*.eNodeB9.x2App[20].client.connectAddress = "eNodeB28%x2ppp4"
*.eNodeB9.x2App[21].client.connectAddress = "eNodeB29%x2ppp8"
*.eNodeB9.x2App[22].client.connectAddress = "eNodeB30%x2ppp6"
*.eNodeB9.x2App[23].client.connectAddress = "eNodeB31%x2ppp6"
*.eNodeB9.x2App[24].client.connectAddress = "eNodeB32%x2ppp6"
*.eNodeB9.x2App[25].client.connectAddress = "eNodeB33%x2ppp5"
*.eNodeB9.x2App[26].client.connectAddress = "eNodeB35%x2ppp6"
*.eNodeB9.x2App[27].client.connectAddress = "eNodeB37%x2ppp4"
*.eNodeB9.x2App[28].client.connectAddress = "eNodeB40%x2ppp4"
*.eNodeB9.x2App[29].client.connectAddress = "eNodeB41%x2ppp5"
*.eNodeB9.x2App[30].client.connectAddress = "eNodeB42%x2ppp3"