<?xml version="1.0"?>
<!-- generated on 2019-04-13 22:19:59.620280 by $Id: randomTrips.py 23999 2017-04-21 09:04:47Z behrisch $
  options: -n comparison.net.xml -e 360
-->
<routes xmlns:xsi="http://www.w3.org/2001/XMLSchema-instance" xsi:noNamespaceSchemaLocation="http://sumo.dlr.de/xsd/routes_file.xsd">
    <trip id="0" depart="0.00" from="4006672" to="33174302#1"/>
    <trip id="1" depart="1.00" from="-4006687" to="25472129"/>
    <trip id="2" depart="2.00" from="4900043" to="3998615#1"/>
    <trip id="3" depart="3.00" from="113939242#1" to="8402998#0"/>
    <trip id="4" depart="4.00" from="-10712013" to="25472257"/>
    <trip id="5" depart="5.00" from="113939241" to="-23350929"/>
    <trip id="6" depart="6.00" from="4006683" to="-31241855#1"/>
    <trip id="7" depart="7.00" from="4006705#1" to="25398494#0"/>
    <trip id="8" depart="8.00" from="-31401017#2" to="31241834#1"/>
    <trip id="9" depart="9.00" from="4047446#0" to="-4006724#2"/>
    <trip id="10" depart="10.00" from="19796637" to="4006701"/>
    <trip id="11" depart="11.00" from="8402998#0" to="31241834#0"/>
    <trip id="12" depart="12.00" from="30357194" to="-31241853#2"/>
    <trip id="13" depart="13.00" from="4006683" to="30357194"/>
    <trip id="14" depart="14.00" from="85355912" to="4900739#1"/>
    <trip id="15" depart="15.00" from="30405358#0" to="4006694"/>
    <trip id="16" depart="16.00" from="-4006702#0" to="3998613#0"/>
    <trip id="17" depart="17.00" from="4006672" to="-4006702#2"/>
    <trip id="18" depart="18.00" from="-4006702#1" to="-28269601"/>
    <trip id="19" depart="19.00" from="4006689" to="-8402998#0"/>
    <trip id="20" depart="20.00" from="-32302591#2" to="-31720632#0"/>
    <trip id="21" depart="21.00" from="-23605595" to="-29900565#2"/>
    <trip id="22" depart="22.00" from="-4099309" to="-10573414#0"/>
    <trip id="23" depart="23.00" from="-4872369" to="4006693#1"/>
    <trip id="24" depart="24.00" from="23341293" to="23339459"/>
    <trip id="25" depart="25.00" from="32302591#5" to="4686970#0"/>
    <trip id="26" depart="26.00" from="29900564#2" to="3013106#2"/>
    <trip id="27" depart="27.00" from="-4006688#1" to="-3998643#2"/>
    <trip id="28" depart="28.00" from="-4006668" to="4099309"/>
    <trip id="29" depart="29.00" from="-31241816#1" to="-29900564#2"/>
    <trip id="30" depart="30.00" from="-35842306#0" to="-4006705#1"/>
    <trip id="31" depart="31.00" from="3998615#1" to="4006668"/>
    <trip id="32" depart="32.00" from="3998615#2" to="-29900567"/>
    <trip id="33" depart="33.00" from="-4006688#0" to="3998612#0"/>
    <trip id="34" depart="34.00" from="32611578" to="23805514#1"/>
    <trip id="35" depart="35.00" from="25472299" to="126606716"/>
    <trip id="36" depart="36.00" from="4006674#4" to="-31270441"/>
    <trip id="37" depart="37.00" from="-4900739#2" to="29900564#4"/>
    <trip id="38" depart="38.00" from="-31241851#2" to="-4006674#1"/>
    <trip id="39" depart="39.00" from="32270592#0" to="-4006703#0"/>
    <trip id="40" depart="40.00" from="4006675" to="-3998612#0"/>
    <trip id="41" depart="41.00" from="85355911#1" to="23805514#1"/>
    <trip id="42" depart="42.00" from="31241835#0" to="31255203#0"/>
    <trip id="43" depart="43.00" from="4006705#2" to="-29900565#1"/>
    <trip id="44" depart="44.00" from="23605600#1" to="29900564#4"/>
    <trip id="45" depart="45.00" from="-23605600#1" to="29900565#2"/>
    <trip id="46" depart="46.00" from="-29900567" to="-4006687"/>
    <trip id="47" depart="47.00" from="32302591#4" to="4099270#0"/>
    <trip id="48" depart="48.00" from="25472257" to="-32282774"/>
    <trip id="49" depart="49.00" from="-31241855#1" to="31241848"/>
    <trip id="50" depart="50.00" from="-3998615#0" to="19796637"/>
    <trip id="51" depart="51.00" from="4006683" to="-28613727#0"/>
    <trip id="52" depart="52.00" from="4006726#0" to="-4006668"/>
    <trip id="53" depart="53.00" from="31241848" to="-3998645#1"/>
    <trip id="54" depart="54.00" from="31353573#1" to="29900561#1"/>
    <trip id="55" depart="55.00" from="4006690" to="-23605600#1"/>
    <trip id="56" depart="56.00" from="8403007" to="4006690"/>
    <trip id="57" depart="57.00" from="122161381" to="31720632#0"/>
    <trip id="58" depart="58.00" from="-31401017#0" to="85355912"/>
    <trip id="59" depart="59.00" from="-4006693#0" to="3998613#2"/>
    <trip id="60" depart="60.00" from="4006705#1" to="-4006693#0"/>
    <trip id="61" depart="61.00" from="-113939241" to="30405352"/>
    <trip id="62" depart="62.00" from="-31270441" to="-29900561#0"/>
    <trip id="63" depart="63.00" from="-8402998#0" to="4797871"/>
    <trip id="64" depart="64.00" from="29900565#3" to="10425130"/>
    <trip id="65" depart="65.00" from="-23805514#1" to="-8402998#3"/>
    <trip id="66" depart="66.00" from="30405358#1" to="4006688#2"/>
    <trip id="67" depart="67.00" from="-3998643#1" to="-5445204#3"/>
    <trip id="68" depart="68.00" from="28613734" to="-8403001"/>
    <trip id="69" depart="69.00" from="-31241835#1" to="3998643#1"/>
    <trip id="70" depart="70.00" from="126606716" to="-8402998#0"/>
    <trip id="71" depart="71.00" from="4686970#1" to="31777493#0"/>
    <trip id="72" depart="72.00" from="-4900739#1" to="4006693#3"/>
    <trip id="73" depart="73.00" from="-33174302#0" to="31353573#1"/>
    <trip id="74" depart="74.00" from="-4006691" to="10419402"/>
    <trip id="75" depart="75.00" from="-4006672" to="23341293"/>
    <trip id="76" depart="76.00" from="-8402998#1" to="4047241"/>
    <trip id="77" depart="77.00" from="-4006724#1" to="31720633"/>
    <trip id="78" depart="78.00" from="-29900564#0" to="25472101"/>
    <trip id="79" depart="79.00" from="-31401017#1" to="-10573414#1"/>
    <trip id="80" depart="80.00" from="3013109" to="113939242#0"/>
    <trip id="81" depart="81.00" from="23605595" to="-4006693#1"/>
    <trip id="82" depart="82.00" from="-4099270#0" to="30405358#1"/>
    <trip id="83" depart="83.00" from="122161390" to="-4006705#1"/>
    <trip id="84" depart="84.00" from="3998615#2" to="31401017#0"/>
    <trip id="85" depart="85.00" from="25472101" to="28613727#0"/>
    <trip id="86" depart="86.00" from="25472257" to="-29900565#2"/>
    <trip id="87" depart="87.00" from="4686970#0" to="-4006702#1"/>
    <trip id="88" depart="88.00" from="-29900564#2" to="4900739#1"/>
    <trip id="89" depart="89.00" from="-113939241" to="-4006702#0"/>
    <trip id="90" depart="90.00" from="4006726#1" to="-4006675"/>
    <trip id="91" depart="91.00" from="29900564#0" to="85355912"/>
    <trip id="92" depart="92.00" from="-10712011" to="4047532"/>
    <trip id="93" depart="93.00" from="-5558" to="32270593"/>
    <trip id="94" depart="94.00" from="-4006705#1" to="4006688#4"/>
    <trip id="95" depart="95.00" from="-3998615#2" to="85355911#0"/>
    <trip id="96" depart="96.00" from="4006689" to="-29900564#4"/>
    <trip id="97" depart="97.00" from="3013106#2" to="4006687"/>
    <trip id="98" depart="98.00" from="-32320329" to="-28269598"/>
    <trip id="99" depart="99.00" from="4319352#0" to="113939242#2"/>
    <trip id="100" depart="100.00" from="28269598" to="-23341293"/>
    <trip id="101" depart="101.00" from="-10419402" to="-8403001"/>
    <trip id="102" depart="102.00" from="32270592#0" to="33174302#0"/>
    <trip id="103" depart="103.00" from="-4006674#4" to="-94344940#0"/>
    <trip id="104" depart="104.00" from="-29900564#1" to="-31720632#0"/>
    <trip id="105" depart="105.00" from="-4006668" to="30350445"/>
    <trip id="106" depart="106.00" from="-29900565#3" to="-10425130"/>
    <trip id="107" depart="107.00" from="4006674#0" to="113939244#2"/>
    <trip id="108" depart="108.00" from="-32270592#0" to="5445204#1"/>
    <trip id="109" depart="109.00" from="29900564#1" to="-4047532"/>
    <trip id="110" depart="110.00" from="-10419402" to="30405352"/>
    <trip id="111" depart="111.00" from="-5558" to="4006674#4"/>
    <trip id="112" depart="112.00" from="-5445204#1" to="30350450#0"/>
    <trip id="113" depart="113.00" from="-31241816#0" to="8402998#3"/>
    <trip id="114" depart="114.00" from="10419402" to="-4099270#0"/>
    <trip id="115" depart="115.00" from="23339459" to="-23341293"/>
    <trip id="116" depart="116.00" from="-23570844#2" to="4006740"/>
    <trip id="117" depart="117.00" from="113939244#2" to="23605600#2"/>
    <trip id="118" depart="118.00" from="4006674#3" to="31241853#2"/>
    <trip id="119" depart="119.00" from="25210699" to="3998613#1"/>
    <trip id="120" depart="120.00" from="31401018" to="31241855#1"/>
    <trip id="121" depart="121.00" from="-4006726#0" to="-5445204#2"/>
    <trip id="122" depart="122.00" from="-9643180" to="-31401018"/>
    <trip id="123" depart="123.00" from="32271499" to="3013107"/>
    <trip id="124" depart="124.00" from="4319352#1" to="31720632#1"/>
    <trip id="125" depart="125.00" from="94344941" to="31241855#1"/>
    <trip id="126" depart="126.00" from="-10712011" to="-28613727#1"/>
    <trip id="127" depart="127.00" from="25472257" to="31401017#1"/>
    <trip id="128" depart="128.00" from="-29900565#3" to="25398494#0"/>
    <trip id="129" depart="129.00" from="4006694" to="29900567"/>
    <trip id="130" depart="130.00" from="31401017#1" to="-29900564#2"/>
    <trip id="131" depart="131.00" from="30350448" to="4006724#2"/>
    <trip id="132" depart="132.00" from="4900739#2" to="-4006726#0"/>
    <trip id="133" depart="133.00" from="-25398494#0" to="4006689"/>
    <trip id="134" depart="134.00" from="4006726#1" to="32270593"/>
    <trip id="135" depart="135.00" from="4797871" to="4006688#0"/>
    <trip id="136" depart="136.00" from="29900561#1" to="31401018"/>
    <trip id="137" depart="137.00" from="-37591481" to="31401018"/>
    <trip id="138" depart="138.00" from="-29900564#5" to="-4392769"/>
    <trip id="139" depart="139.00" from="-31241855#0" to="31241848"/>
    <trip id="140" depart="140.00" from="-8402997" to="-4006693#3"/>
    <trip id="141" depart="141.00" from="-4006702#0" to="19796637"/>
    <trip id="142" depart="142.00" from="-4006682" to="30350450#2"/>
    <trip id="143" depart="143.00" from="9643180" to="-31353573#1"/>
    <trip id="144" depart="144.00" from="-4006724#1" to="44069041#0"/>
    <trip id="145" depart="145.00" from="-8402998#1" to="4047241"/>
    <trip id="146" depart="146.00" from="-32270595" to="113939242#1"/>
    <trip id="147" depart="147.00" from="4047446#0" to="-10419402"/>
    <trip id="148" depart="148.00" from="-28269601" to="31720633"/>
    <trip id="149" depart="149.00" from="4006702#2" to="4006725#1"/>
    <trip id="150" depart="150.00" from="-31241834#1" to="-94344940#0"/>
    <trip id="151" depart="151.00" from="4006673" to="-31401017#2"/>
    <trip id="152" depart="152.00" from="4006705#0" to="-4006684"/>
    <trip id="153" depart="153.00" from="32302591#1" to="3998615#2"/>
    <trip id="154" depart="154.00" from="10425128#0" to="-32302591#0"/>
    <trip id="155" depart="155.00" from="-4006674#1" to="-4900739#0"/>
    <trip id="156" depart="156.00" from="-32302591#4" to="8402997"/>
    <trip id="157" depart="157.00" from="-29900561#0" to="4006687"/>
    <trip id="158" depart="158.00" from="4797871" to="25472257"/>
    <trip id="159" depart="159.00" from="31241853#0" to="32270592#1"/>
    <trip id="160" depart="160.00" from="30357194" to="35842306#1"/>
    <trip id="161" depart="161.00" from="-3998612#0" to="-31241838#1"/>
    <trip id="162" depart="162.00" from="29900564#2" to="-31401017#0"/>
    <trip id="163" depart="163.00" from="3998615#3" to="4047532"/>
    <trip id="164" depart="164.00" from="29900565#3" to="31401017#0"/>
    <trip id="165" depart="165.00" from="-4006691" to="-31241855#0"/>
    <trip id="166" depart="166.00" from="-23605595" to="4900041#0"/>
    <trip id="167" depart="167.00" from="-4006724#2" to="32270593"/>
    <trip id="168" depart="168.00" from="-10419402" to="-23605595"/>
    <trip id="169" depart="169.00" from="4006688#4" to="30350450#0"/>
    <trip id="170" depart="170.00" from="4006693#4" to="29900564#3"/>
    <trip id="171" depart="171.00" from="4006724#0" to="-4006688#1"/>
    <trip id="172" depart="172.00" from="-28631632" to="29900567"/>
    <trip id="173" depart="173.00" from="31241835#0" to="-3998613#2"/>
    <trip id="174" depart="174.00" from="-3998653" to="-4900043"/>
    <trip id="175" depart="175.00" from="3998615#1" to="30350448"/>
    <trip id="176" depart="176.00" from="23350929" to="3998615#0"/>
    <trip id="177" depart="177.00" from="-3998643#0" to="-10425130"/>
    <trip id="178" depart="178.00" from="3998613#2" to="-31353573#1"/>
    <trip id="179" depart="179.00" from="3998613#0" to="-31241816#3"/>
    <trip id="180" depart="180.00" from="113939242#2" to="32270592#0"/>
    <trip id="181" depart="181.00" from="-29900561#1" to="32270592#0"/>
    <trip id="182" depart="182.00" from="-4006674#3" to="-4006675"/>
    <trip id="183" depart="183.00" from="-29900567" to="4006726#0"/>
    <trip id="184" depart="184.00" from="4006724#1" to="37591481"/>
    <trip id="185" depart="185.00" from="-4006693#1" to="4099270#1"/>
    <trip id="186" depart="186.00" from="-4099270#0" to="-31720632#0"/>
    <trip id="187" depart="187.00" from="-29900564#3" to="3998613#0"/>
    <trip id="188" depart="188.00" from="3998645#1" to="4006674#1"/>
    <trip id="189" depart="189.00" from="29900565#1" to="4006691"/>
    <trip id="190" depart="190.00" from="4047309" to="-31255203#1"/>
    <trip id="191" depart="191.00" from="-3998612#1" to="-126606716"/>
    <trip id="192" depart="192.00" from="-3013106#0" to="4006682"/>
    <trip id="193" depart="193.00" from="4319352#0" to="31241834#0"/>
    <trip id="194" depart="194.00" from="-31241834#1" to="-3998613#0"/>
    <trip id="195" depart="195.00" from="-4006684" to="85355912"/>
    <trip id="196" depart="196.00" from="125685391" to="4900043"/>
    <trip id="197" depart="197.00" from="-4006691" to="31241853#1"/>
    <trip id="198" depart="198.00" from="23605600#1" to="-23570844#2"/>
    <trip id="199" depart="199.00" from="31270441" to="29900565#0"/>
    <trip id="200" depart="200.00" from="4006702#2" to="-8403007"/>
    <trip id="201" depart="201.00" from="-4872369" to="31255203#1"/>
    <trip id="202" depart="202.00" from="-4006726#1" to="9643180"/>
    <trip id="203" depart="203.00" from="23605600#0" to="-5445204#2"/>
    <trip id="204" depart="204.00" from="30405356" to="31241855#0"/>
    <trip id="205" depart="205.00" from="10425128#0" to="-10573414#0"/>
    <trip id="206" depart="206.00" from="4006673" to="10425128#0"/>
    <trip id="207" depart="207.00" from="-3998615#3" to="-4006691"/>
    <trip id="208" depart="208.00" from="-28613727#0" to="33174302#1"/>
    <trip id="209" depart="209.00" from="4006684" to="-31241816#1"/>
    <trip id="210" depart="210.00" from="4006693#4" to="31241816#0"/>
    <trip id="211" depart="211.00" from="30405358#1" to="30350450#0"/>
    <trip id="212" depart="212.00" from="-32302591#5" to="3013107"/>
    <trip id="213" depart="213.00" from="-31401017#0" to="-23350929"/>
    <trip id="214" depart="214.00" from="4319353" to="-4006683"/>
    <trip id="215" depart="215.00" from="23605595" to="4690348"/>
    <trip id="216" depart="216.00" from="-28631632" to="4006674#3"/>
    <trip id="217" depart="217.00" from="-10419402" to="-4006693#1"/>
    <trip id="218" depart="218.00" from="4006688#1" to="3998645#2"/>
    <trip id="219" depart="219.00" from="9643180" to="10573414#1"/>
    <trip id="220" depart="220.00" from="25472257" to="23605600#0"/>
    <trip id="221" depart="221.00" from="-29900564#4" to="3013109"/>
    <trip id="222" depart="222.00" from="-31401018" to="-3998615#1"/>
    <trip id="223" depart="223.00" from="-32270592#1" to="4006694"/>
    <trip id="224" depart="224.00" from="4006705#0" to="-4006674#4"/>
    <trip id="225" depart="225.00" from="31982182#0" to="-31720632#0"/>
    <trip id="226" depart="226.00" from="-29900564#3" to="4900041#0"/>
    <trip id="227" depart="227.00" from="31720632#0" to="-3998645#2"/>
    <trip id="228" depart="228.00" from="3013109" to="-3013109"/>
    <trip id="229" depart="229.00" from="-23605600#0" to="-28613737"/>
    <trip id="230" depart="230.00" from="-4006676" to="32302591#1"/>
    <trip id="231" depart="231.00" from="-4006724#2" to="29900564#1"/>
    <trip id="232" depart="232.00" from="4006693#2" to="-4900739#1"/>
    <trip id="233" depart="233.00" from="32270593" to="4006689"/>
    <trip id="234" depart="234.00" from="8402998#0" to="-4006674#0"/>
    <trip id="235" depart="235.00" from="4797872" to="32302591#5"/>
    <trip id="236" depart="236.00" from="-3998613#1" to="31982182#0"/>
    <trip id="237" depart="237.00" from="3998612#2" to="32302591#4"/>
    <trip id="238" depart="238.00" from="-3998613#1" to="4319352#1"/>
    <trip id="239" depart="239.00" from="10573414#0" to="31270441"/>
    <trip id="240" depart="240.00" from="-8403007" to="-3998615#1"/>
    <trip id="241" depart="241.00" from="-94344940#2" to="-4006675"/>
    <trip id="242" depart="242.00" from="30405358#1" to="113939244#2"/>
    <trip id="243" depart="243.00" from="4047378" to="-113939241"/>
    <trip id="244" depart="244.00" from="32271499" to="-4006705#0"/>
    <trip id="245" depart="245.00" from="-4006705#1" to="-28613727#0"/>
    <trip id="246" depart="246.00" from="122161381" to="5445204#2"/>
    <trip id="247" depart="247.00" from="-4006705#2" to="28613737"/>
    <trip id="248" depart="248.00" from="-37591481" to="-23350930"/>
    <trip id="249" depart="249.00" from="-31261347" to="23605600#1"/>
    <trip id="250" depart="250.00" from="4047241" to="31777493#0"/>
    <trip id="251" depart="251.00" from="-4047532" to="8403007"/>
    <trip id="252" depart="252.00" from="5445204#1" to="-28613727#1"/>
    <trip id="253" depart="253.00" from="-4006688#3" to="-4006705#2"/>
    <trip id="254" depart="254.00" from="-28269601" to="5445204#1"/>
    <trip id="255" depart="255.00" from="-5445204#1" to="3998643#0"/>
    <trip id="256" depart="256.00" from="4006702#1" to="-4006688#1"/>
    <trip id="257" depart="257.00" from="-3998615#1" to="-29900561#1"/>
    <trip id="258" depart="258.00" from="32270592#0" to="85355911#0"/>
    <trip id="259" depart="259.00" from="-31241834#0" to="41973977"/>
    <trip id="260" depart="260.00" from="3998643#0" to="32302591#5"/>
    <trip id="261" depart="261.00" from="4006693#0" to="3013106#1"/>
    <trip id="262" depart="262.00" from="-8402998#2" to="3013109"/>
    <trip id="263" depart="263.00" from="29900565#0" to="-32270593"/>
    <trip id="264" depart="264.00" from="30350450#2" to="3998613#0"/>
    <trip id="265" depart="265.00" from="-4006693#0" to="-4900043"/>
    <trip id="266" depart="266.00" from="-5445204#3" to="4690348"/>
    <trip id="267" depart="267.00" from="-3998615#1" to="31241834#0"/>
    <trip id="268" depart="268.00" from="31241855#0" to="-10425128#1"/>
    <trip id="269" depart="269.00" from="33174302#0" to="-4006693#4"/>
    <trip id="270" depart="270.00" from="25472129" to="4047532"/>
    <trip id="271" depart="271.00" from="4006703#1" to="30350450#0"/>
    <trip id="272" depart="272.00" from="-31241816#0" to="4006668"/>
    <trip id="273" depart="273.00" from="4006705#2" to="35842306#0"/>
    <trip id="274" depart="274.00" from="23360299" to="-4900739#0"/>
    <trip id="275" depart="275.00" from="-3998615#3" to="113939242#1"/>
    <trip id="276" depart="276.00" from="-31720632#0" to="-32270593"/>
    <trip id="277" depart="277.00" from="-28613727#1" to="9643180"/>
    <trip id="278" depart="278.00" from="-31353573#0" to="10425131"/>
    <trip id="279" depart="279.00" from="-3998615#3" to="-4006687"/>
    <trip id="280" depart="280.00" from="23570844#1" to="-28613727#0"/>
    <trip id="281" depart="281.00" from="-25398494#0" to="10573414#1"/>
    <trip id="282" depart="282.00" from="31401018" to="-28613737"/>
    <trip id="283" depart="283.00" from="-31241835#1" to="4006726#0"/>
    <trip id="284" depart="284.00" from="44069041#1" to="31720632#0"/>
    <trip id="285" depart="285.00" from="-10425130" to="-31241816#0"/>
    <trip id="286" depart="286.00" from="4006674#4" to="-28269598"/>
    <trip id="287" depart="287.00" from="-3998615#1" to="4686970#0"/>
    <trip id="288" depart="288.00" from="23350929" to="4900043"/>
    <trip id="289" depart="289.00" from="-3998612#2" to="10425128#0"/>
    <trip id="290" depart="290.00" from="25210699" to="4006675"/>
    <trip id="291" depart="291.00" from="32282774" to="-31401018"/>
    <trip id="292" depart="292.00" from="113939242#0" to="4319352#1"/>
    <trip id="293" depart="293.00" from="4006725#1" to="28269598"/>
    <trip id="294" depart="294.00" from="-31241851#1" to="-4006693#1"/>
    <trip id="295" depart="295.00" from="-10425128#0" to="3013106#1"/>
    <trip id="296" depart="296.00" from="-3998613#1" to="-32270595"/>
    <trip id="297" depart="297.00" from="3998643#0" to="30350445"/>
    <trip id="298" depart="298.00" from="29900565#3" to="-4006684"/>
    <trip id="299" depart="299.00" from="-4006705#1" to="39539626"/>
    <trip id="300" depart="300.00" from="30350445" to="-8402998#3"/>
    <trip id="301" depart="301.00" from="4900041#0" to="-8403007"/>
    <trip id="302" depart="302.00" from="5445204#2" to="10573414#1"/>
    <trip id="303" depart="303.00" from="-4006684" to="10425130"/>
    <trip id="304" depart="304.00" from="31241851#1" to="3013109"/>
    <trip id="305" depart="305.00" from="4006702#0" to="31241834#0"/>
    <trip id="306" depart="306.00" from="-29900564#4" to="3998613#1"/>
    <trip id="307" depart="307.00" from="-4006705#2" to="4900041#2"/>
    <trip id="308" depart="308.00" from="-3998612#2" to="8402998#3"/>
    <trip id="309" depart="309.00" from="125685391" to="-3998645#2"/>
    <trip id="310" depart="310.00" from="4006702#1" to="33174302#1"/>
    <trip id="311" depart="311.00" from="-4006740" to="-31720632#0"/>
    <trip id="312" depart="312.00" from="9643180" to="10712011"/>
    <trip id="313" depart="313.00" from="25210699" to="4319353"/>
    <trip id="314" depart="314.00" from="-32302591#0" to="-4006674#4"/>
    <trip id="315" depart="315.00" from="-29900567" to="-31241835#1"/>
    <trip id="316" depart="316.00" from="-94344940#0" to="-4006724#0"/>
    <trip id="317" depart="317.00" from="-4006691" to="113939244#1"/>
    <trip id="318" depart="318.00" from="31241835#1" to="-4006687"/>
    <trip id="319" depart="319.00" from="-8402998#0" to="31777493#0"/>
    <trip id="320" depart="320.00" from="-29900564#1" to="-4006702#2"/>
    <trip id="321" depart="321.00" from="31241853#0" to="-8403007"/>
    <trip id="322" depart="322.00" from="8402998#1" to="8402998#2"/>
    <trip id="323" depart="323.00" from="-3998645#2" to="28613737"/>
    <trip id="324" depart="324.00" from="-4006675" to="4047309"/>
    <trip id="325" depart="325.00" from="31353573#0" to="-33174302#0"/>
    <trip id="326" depart="326.00" from="30405358#0" to="-4099309"/>
    <trip id="327" depart="327.00" from="30350449" to="-31241838#1"/>
    <trip id="328" depart="328.00" from="8402998#2" to="31255203#0"/>
    <trip id="329" depart="329.00" from="3998645#0" to="30350450#1"/>
    <trip id="330" depart="330.00" from="-32270595" to="31401017#1"/>
    <trip id="331" depart="331.00" from="126606716" to="-3998612#1"/>
    <trip id="332" depart="332.00" from="31720632#0" to="4006687"/>
    <trip id="333" depart="333.00" from="23605600#1" to="32302591#5"/>
    <trip id="334" depart="334.00" from="23341293" to="-3013106#1"/>
    <trip id="335" depart="335.00" from="28613727#0" to="-29900565#0"/>
    <trip id="336" depart="336.00" from="-5445204#3" to="-4900739#0"/>
    <trip id="337" depart="337.00" from="-4006683" to="3998645#2"/>
    <trip id="338" depart="338.00" from="44069041#0" to="3998615#0"/>
    <trip id="339" depart="339.00" from="-3013106#0" to="--5558"/>
    <trip id="340" depart="340.00" from="25472101" to="3998615#0"/>
    <trip id="341" depart="341.00" from="4006674#0" to="29900565#0"/>
    <trip id="342" depart="342.00" from="-31241838#1" to="3998643#0"/>
    <trip id="343" depart="343.00" from="25472134" to="4006674#4"/>
    <trip id="344" depart="344.00" from="4006725#1" to="-31241851#0"/>
    <trip id="345" depart="345.00" from="-29900564#5" to="30357194"/>
    <trip id="346" depart="346.00" from="3998615#3" to="26188722"/>
    <trip id="347" depart="347.00" from="28613737" to="4047446#1"/>
    <trip id="348" depart="348.00" from="-3998645#0" to="3998645#2"/>
    <trip id="349" depart="349.00" from="25472129" to="-31241853#0"/>
    <trip id="350" depart="350.00" from="3013106#1" to="-31241848"/>
    <trip id="351" depart="351.00" from="-4006684" to="-31241853#1"/>
    <trip id="352" depart="352.00" from="32611578" to="4006684"/>
    <trip id="353" depart="353.00" from="3013107" to="3998615#0"/>
    <trip id="354" depart="354.00" from="8403001" to="-8402998#3"/>
    <trip id="355" depart="355.00" from="-29900561#0" to="31777493#0"/>
    <trip id="356" depart="356.00" from="-4006688#1" to="-4006691"/>
    <trip id="357" depart="357.00" from="-32302591#4" to="10712013"/>
    <trip id="358" depart="358.00" from="4047241" to="31241816#1"/>
    <trip id="359" depart="359.00" from="-4900739#2" to="-4900739#2"/>
</routes>
